
---------- Begin Simulation Statistics ----------
final_tick                               119799989000                       # Number of ticks from beginning of simulation (restored from checkpoints and never reset)
host_inst_rate                                 228111                       # Simulator instruction rate (inst/s)
host_mem_usage                                 659964                       # Number of bytes of host memory used
host_op_rate                                   249606                       # Simulator op (including micro ops) rate (op/s)
host_seconds                                   438.38                       # Real time elapsed on the host
host_tick_rate                              273276371                       # Simulator tick rate (ticks/s)
sim_freq                                 1000000000000                       # Frequency of simulated ticks
sim_insts                                   100000000                       # Number of instructions simulated
sim_ops                                     109423148                       # Number of ops (including micro ops) simulated
sim_seconds                                  0.119800                       # Number of seconds simulated
sim_ticks                                119799989000                       # Number of ticks simulated
system.cpu.committedInsts                   100000000                       # Number of instructions committed
system.cpu.committedOps                     109423148                       # Number of ops (including micro ops) committed
system.cpu.cpi                               1.198000                       # CPI: cycles per instruction
system.cpu.discardedOps                        460245                       # Number of ops (including micro ops) which were discarded before commit
system.cpu.idleCycles                         9097173                       # Total number of cycles that the object has spent stopped
system.cpu.ipc                               0.834725                       # IPC: instructions per cycle
system.cpu.numCycles                        119799989                       # number of cpu cycles simulated
system.cpu.numFetchSuspends                         0                       # Number of times Execute suspended instruction fetching
system.cpu.numWorkItemsCompleted                    0                       # number of work items this cpu completed
system.cpu.numWorkItemsStarted                      0                       # number of work items this cpu started
system.cpu.op_class_0::No_OpClass                   0      0.00%      0.00% # Class of committed instruction
system.cpu.op_class_0::IntAlu                72978378     66.69%     66.69% # Class of committed instruction
system.cpu.op_class_0::IntMult                 567877      0.52%     67.21% # Class of committed instruction
system.cpu.op_class_0::IntDiv                       0      0.00%     67.21% # Class of committed instruction
system.cpu.op_class_0::FloatAdd                     0      0.00%     67.21% # Class of committed instruction
system.cpu.op_class_0::FloatCmp                     0      0.00%     67.21% # Class of committed instruction
system.cpu.op_class_0::FloatCvt                     0      0.00%     67.21% # Class of committed instruction
system.cpu.op_class_0::FloatMult                    0      0.00%     67.21% # Class of committed instruction
system.cpu.op_class_0::FloatMultAcc                 0      0.00%     67.21% # Class of committed instruction
system.cpu.op_class_0::FloatDiv                     0      0.00%     67.21% # Class of committed instruction
system.cpu.op_class_0::FloatMisc                    0      0.00%     67.21% # Class of committed instruction
system.cpu.op_class_0::FloatSqrt                    0      0.00%     67.21% # Class of committed instruction
system.cpu.op_class_0::SimdAdd                 241132      0.22%     67.43% # Class of committed instruction
system.cpu.op_class_0::SimdAddAcc                   0      0.00%     67.43% # Class of committed instruction
system.cpu.op_class_0::SimdAlu                 154494      0.14%     67.57% # Class of committed instruction
system.cpu.op_class_0::SimdCmp                 120566      0.11%     67.68% # Class of committed instruction
system.cpu.op_class_0::SimdCvt                      0      0.00%     67.68% # Class of committed instruction
system.cpu.op_class_0::SimdMisc                 44506      0.04%     67.73% # Class of committed instruction
system.cpu.op_class_0::SimdMult                     0      0.00%     67.73% # Class of committed instruction
system.cpu.op_class_0::SimdMultAcc                  0      0.00%     67.73% # Class of committed instruction
system.cpu.op_class_0::SimdShift                    0      0.00%     67.73% # Class of committed instruction
system.cpu.op_class_0::SimdShiftAcc                 0      0.00%     67.73% # Class of committed instruction
system.cpu.op_class_0::SimdDiv                      0      0.00%     67.73% # Class of committed instruction
system.cpu.op_class_0::SimdSqrt                     0      0.00%     67.73% # Class of committed instruction
system.cpu.op_class_0::SimdFloatAdd                 0      0.00%     67.73% # Class of committed instruction
system.cpu.op_class_0::SimdFloatAlu                 0      0.00%     67.73% # Class of committed instruction
system.cpu.op_class_0::SimdFloatCmp                 0      0.00%     67.73% # Class of committed instruction
system.cpu.op_class_0::SimdFloatCvt                 0      0.00%     67.73% # Class of committed instruction
system.cpu.op_class_0::SimdFloatDiv                 0      0.00%     67.73% # Class of committed instruction
system.cpu.op_class_0::SimdFloatMisc           166276      0.15%     67.88% # Class of committed instruction
system.cpu.op_class_0::SimdFloatMult                0      0.00%     67.88% # Class of committed instruction
system.cpu.op_class_0::SimdFloatMultAcc             0      0.00%     67.88% # Class of committed instruction
system.cpu.op_class_0::SimdFloatSqrt                0      0.00%     67.88% # Class of committed instruction
system.cpu.op_class_0::SimdReduceAdd                0      0.00%     67.88% # Class of committed instruction
system.cpu.op_class_0::SimdReduceAlu                0      0.00%     67.88% # Class of committed instruction
system.cpu.op_class_0::SimdReduceCmp                0      0.00%     67.88% # Class of committed instruction
system.cpu.op_class_0::SimdFloatReduceAdd            0      0.00%     67.88% # Class of committed instruction
system.cpu.op_class_0::SimdFloatReduceCmp            0      0.00%     67.88% # Class of committed instruction
system.cpu.op_class_0::SimdAes                      0      0.00%     67.88% # Class of committed instruction
system.cpu.op_class_0::SimdAesMix                   0      0.00%     67.88% # Class of committed instruction
system.cpu.op_class_0::SimdSha1Hash                 0      0.00%     67.88% # Class of committed instruction
system.cpu.op_class_0::SimdSha1Hash2                0      0.00%     67.88% # Class of committed instruction
system.cpu.op_class_0::SimdSha256Hash               0      0.00%     67.88% # Class of committed instruction
system.cpu.op_class_0::SimdSha256Hash2              0      0.00%     67.88% # Class of committed instruction
system.cpu.op_class_0::SimdShaSigma2                0      0.00%     67.88% # Class of committed instruction
system.cpu.op_class_0::SimdShaSigma3                0      0.00%     67.88% # Class of committed instruction
system.cpu.op_class_0::SimdPredAlu                  0      0.00%     67.88% # Class of committed instruction
system.cpu.op_class_0::MemRead               20628136     18.85%     86.73% # Class of committed instruction
system.cpu.op_class_0::MemWrite              14521783     13.27%    100.00% # Class of committed instruction
system.cpu.op_class_0::FloatMemRead                 0      0.00%    100.00% # Class of committed instruction
system.cpu.op_class_0::FloatMemWrite                0      0.00%    100.00% # Class of committed instruction
system.cpu.op_class_0::IprAccess                    0      0.00%    100.00% # Class of committed instruction
system.cpu.op_class_0::InstPrefetch                 0      0.00%    100.00% # Class of committed instruction
system.cpu.op_class_0::total                109423148                       # Class of committed instruction
system.cpu.tickCycles                       110702816                       # Number of cycles that the object actually ticked
system.cpu.workload.numSyscalls                    87                       # Number of system calls
system.membus.snoop_filter.hit_multi_requests            0                       # Number of requests hitting in the snoop filter with multiple (>1) holders of the requested data.
system.membus.snoop_filter.hit_multi_snoops            0                       # Number of snoops hitting in the snoop filter with multiple (>1) holders of the requested data.
system.membus.snoop_filter.hit_single_requests        37915                       # Number of requests hitting in the snoop filter with a single holder of the requested data.
system.membus.snoop_filter.hit_single_snoops            0                       # Number of snoops hitting in the snoop filter with a single holder of the requested data.
system.membus.snoop_filter.tot_requests         84451                       # Total number of requests made to the snoop filter.
system.membus.snoop_filter.tot_snoops               0                       # Total number of snoops made to the snoop filter.
system.tol2bus.snoop_filter.hit_multi_requests          829                       # Number of requests hitting in the snoop filter with multiple (>1) holders of the requested data.
system.tol2bus.snoop_filter.hit_multi_snoops            6                       # Number of snoops hitting in the snoop filter with multiple (>1) holders of the requested data.
system.tol2bus.snoop_filter.hit_single_requests       361103                       # Number of requests hitting in the snoop filter with a single holder of the requested data.
system.tol2bus.snoop_filter.hit_single_snoops          925                       # Number of snoops hitting in the snoop filter with a single holder of the requested data.
system.tol2bus.snoop_filter.tot_requests       723666                       # Total number of requests made to the snoop filter.
system.tol2bus.snoop_filter.tot_snoops            931                       # Total number of snoops made to the snoop filter.
system.clk_domain.clock                          1000                       # Clock period in ticks
system.cpu.branchPred.lookups                20399095                       # Number of BP lookups
system.cpu.branchPred.condPredicted          16340797                       # Number of conditional branches predicted
system.cpu.branchPred.condIncorrect             80961                       # Number of conditional branches incorrect
system.cpu.branchPred.BTBLookups              8731963                       # Number of BTB lookups
system.cpu.branchPred.BTBHits                 8730633                       # Number of BTB hits
system.cpu.branchPred.BTBHitPct             99.984769                       # BTB Hit Percentage
system.cpu.branchPred.RASUsed                 1049341                       # Number of times the RAS was used to get a target.
system.cpu.branchPred.RASIncorrect                324                       # Number of incorrect RAS predictions.
system.cpu.branchPred.indirectLookups          433668                       # Number of indirect predictor lookups.
system.cpu.branchPred.indirectHits             299763                       # Number of indirect target hits.
system.cpu.branchPred.indirectMisses           133905                       # Number of indirect misses.
system.cpu.branchPred.indirectMispredicted         1037                       # Number of mispredicted indirect branches.
system.cpu.dcache.demand_hits::.cpu.data     35522589                       # number of demand (read+write) hits
system.cpu.dcache.demand_hits::total         35522589                       # number of demand (read+write) hits
system.cpu.dcache.overall_hits::.cpu.data     35525865                       # number of overall hits
system.cpu.dcache.overall_hits::total        35525865                       # number of overall hits
system.cpu.dcache.demand_misses::.cpu.data       131897                       # number of demand (read+write) misses
system.cpu.dcache.demand_misses::total         131897                       # number of demand (read+write) misses
system.cpu.dcache.overall_misses::.cpu.data       131964                       # number of overall misses
system.cpu.dcache.overall_misses::total        131964                       # number of overall misses
system.cpu.dcache.demand_miss_latency::.cpu.data   8084734000                       # number of demand (read+write) miss cycles
system.cpu.dcache.demand_miss_latency::total   8084734000                       # number of demand (read+write) miss cycles
system.cpu.dcache.overall_miss_latency::.cpu.data   8084734000                       # number of overall miss cycles
system.cpu.dcache.overall_miss_latency::total   8084734000                       # number of overall miss cycles
system.cpu.dcache.demand_accesses::.cpu.data     35654486                       # number of demand (read+write) accesses
system.cpu.dcache.demand_accesses::total     35654486                       # number of demand (read+write) accesses
system.cpu.dcache.overall_accesses::.cpu.data     35657829                       # number of overall (read+write) accesses
system.cpu.dcache.overall_accesses::total     35657829                       # number of overall (read+write) accesses
system.cpu.dcache.demand_miss_rate::.cpu.data     0.003699                       # miss rate for demand accesses
system.cpu.dcache.demand_miss_rate::total     0.003699                       # miss rate for demand accesses
system.cpu.dcache.overall_miss_rate::.cpu.data     0.003701                       # miss rate for overall accesses
system.cpu.dcache.overall_miss_rate::total     0.003701                       # miss rate for overall accesses
system.cpu.dcache.demand_avg_miss_latency::.cpu.data 61295.814158                       # average overall miss latency
system.cpu.dcache.demand_avg_miss_latency::total 61295.814158                       # average overall miss latency
system.cpu.dcache.overall_avg_miss_latency::.cpu.data 61264.693401                       # average overall miss latency
system.cpu.dcache.overall_avg_miss_latency::total 61264.693401                       # average overall miss latency
system.cpu.dcache.blocked_cycles::no_mshrs            0                       # number of cycles access was blocked
system.cpu.dcache.blocked_cycles::no_targets            0                       # number of cycles access was blocked
system.cpu.dcache.blocked::no_mshrs                 0                       # number of cycles access was blocked
system.cpu.dcache.blocked::no_targets               0                       # number of cycles access was blocked
system.cpu.dcache.avg_blocked_cycles::no_mshrs          nan                       # average number of cycles each access was blocked
system.cpu.dcache.avg_blocked_cycles::no_targets          nan                       # average number of cycles each access was blocked
system.cpu.dcache.writebacks::.writebacks        77889                       # number of writebacks
system.cpu.dcache.writebacks::total             77889                       # number of writebacks
system.cpu.dcache.demand_mshr_hits::.cpu.data        25431                       # number of demand (read+write) MSHR hits
system.cpu.dcache.demand_mshr_hits::total        25431                       # number of demand (read+write) MSHR hits
system.cpu.dcache.overall_mshr_hits::.cpu.data        25431                       # number of overall MSHR hits
system.cpu.dcache.overall_mshr_hits::total        25431                       # number of overall MSHR hits
system.cpu.dcache.demand_mshr_misses::.cpu.data       106466                       # number of demand (read+write) MSHR misses
system.cpu.dcache.demand_mshr_misses::total       106466                       # number of demand (read+write) MSHR misses
system.cpu.dcache.overall_mshr_misses::.cpu.data       106529                       # number of overall MSHR misses
system.cpu.dcache.overall_mshr_misses::total       106529                       # number of overall MSHR misses
system.cpu.dcache.demand_mshr_miss_latency::.cpu.data   6409530000                       # number of demand (read+write) MSHR miss cycles
system.cpu.dcache.demand_mshr_miss_latency::total   6409530000                       # number of demand (read+write) MSHR miss cycles
system.cpu.dcache.overall_mshr_miss_latency::.cpu.data   6412525000                       # number of overall MSHR miss cycles
system.cpu.dcache.overall_mshr_miss_latency::total   6412525000                       # number of overall MSHR miss cycles
system.cpu.dcache.demand_mshr_miss_rate::.cpu.data     0.002986                       # mshr miss rate for demand accesses
system.cpu.dcache.demand_mshr_miss_rate::total     0.002986                       # mshr miss rate for demand accesses
system.cpu.dcache.overall_mshr_miss_rate::.cpu.data     0.002988                       # mshr miss rate for overall accesses
system.cpu.dcache.overall_mshr_miss_rate::total     0.002988                       # mshr miss rate for overall accesses
system.cpu.dcache.demand_avg_mshr_miss_latency::.cpu.data 60202.599891                       # average overall mshr miss latency
system.cpu.dcache.demand_avg_mshr_miss_latency::total 60202.599891                       # average overall mshr miss latency
system.cpu.dcache.overall_avg_mshr_miss_latency::.cpu.data 60195.111190                       # average overall mshr miss latency
system.cpu.dcache.overall_avg_mshr_miss_latency::total 60195.111190                       # average overall mshr miss latency
system.cpu.dcache.replacements                 105505                       # number of replacements
system.cpu.dcache.ReadReq_hits::.cpu.data     21343359                       # number of ReadReq hits
system.cpu.dcache.ReadReq_hits::total        21343359                       # number of ReadReq hits
system.cpu.dcache.ReadReq_misses::.cpu.data        69158                       # number of ReadReq misses
system.cpu.dcache.ReadReq_misses::total         69158                       # number of ReadReq misses
system.cpu.dcache.ReadReq_miss_latency::.cpu.data   2492073000                       # number of ReadReq miss cycles
system.cpu.dcache.ReadReq_miss_latency::total   2492073000                       # number of ReadReq miss cycles
system.cpu.dcache.ReadReq_accesses::.cpu.data     21412517                       # number of ReadReq accesses(hits+misses)
system.cpu.dcache.ReadReq_accesses::total     21412517                       # number of ReadReq accesses(hits+misses)
system.cpu.dcache.ReadReq_miss_rate::.cpu.data     0.003230                       # miss rate for ReadReq accesses
system.cpu.dcache.ReadReq_miss_rate::total     0.003230                       # miss rate for ReadReq accesses
system.cpu.dcache.ReadReq_avg_miss_latency::.cpu.data 36034.486249                       # average ReadReq miss latency
system.cpu.dcache.ReadReq_avg_miss_latency::total 36034.486249                       # average ReadReq miss latency
system.cpu.dcache.ReadReq_mshr_hits::.cpu.data         5718                       # number of ReadReq MSHR hits
system.cpu.dcache.ReadReq_mshr_hits::total         5718                       # number of ReadReq MSHR hits
system.cpu.dcache.ReadReq_mshr_misses::.cpu.data        63440                       # number of ReadReq MSHR misses
system.cpu.dcache.ReadReq_mshr_misses::total        63440                       # number of ReadReq MSHR misses
system.cpu.dcache.ReadReq_mshr_miss_latency::.cpu.data   2184411000                       # number of ReadReq MSHR miss cycles
system.cpu.dcache.ReadReq_mshr_miss_latency::total   2184411000                       # number of ReadReq MSHR miss cycles
system.cpu.dcache.ReadReq_mshr_miss_rate::.cpu.data     0.002963                       # mshr miss rate for ReadReq accesses
system.cpu.dcache.ReadReq_mshr_miss_rate::total     0.002963                       # mshr miss rate for ReadReq accesses
system.cpu.dcache.ReadReq_avg_mshr_miss_latency::.cpu.data 34432.708071                       # average ReadReq mshr miss latency
system.cpu.dcache.ReadReq_avg_mshr_miss_latency::total 34432.708071                       # average ReadReq mshr miss latency
system.cpu.dcache.WriteReq_hits::.cpu.data     14179230                       # number of WriteReq hits
system.cpu.dcache.WriteReq_hits::total       14179230                       # number of WriteReq hits
system.cpu.dcache.WriteReq_misses::.cpu.data        62739                       # number of WriteReq misses
system.cpu.dcache.WriteReq_misses::total        62739                       # number of WriteReq misses
system.cpu.dcache.WriteReq_miss_latency::.cpu.data   5592661000                       # number of WriteReq miss cycles
system.cpu.dcache.WriteReq_miss_latency::total   5592661000                       # number of WriteReq miss cycles
system.cpu.dcache.WriteReq_accesses::.cpu.data     14241969                       # number of WriteReq accesses(hits+misses)
system.cpu.dcache.WriteReq_accesses::total     14241969                       # number of WriteReq accesses(hits+misses)
system.cpu.dcache.WriteReq_miss_rate::.cpu.data     0.004405                       # miss rate for WriteReq accesses
system.cpu.dcache.WriteReq_miss_rate::total     0.004405                       # miss rate for WriteReq accesses
system.cpu.dcache.WriteReq_avg_miss_latency::.cpu.data 89141.698146                       # average WriteReq miss latency
system.cpu.dcache.WriteReq_avg_miss_latency::total 89141.698146                       # average WriteReq miss latency
system.cpu.dcache.WriteReq_mshr_hits::.cpu.data        19713                       # number of WriteReq MSHR hits
system.cpu.dcache.WriteReq_mshr_hits::total        19713                       # number of WriteReq MSHR hits
system.cpu.dcache.WriteReq_mshr_misses::.cpu.data        43026                       # number of WriteReq MSHR misses
system.cpu.dcache.WriteReq_mshr_misses::total        43026                       # number of WriteReq MSHR misses
system.cpu.dcache.WriteReq_mshr_miss_latency::.cpu.data   4225119000                       # number of WriteReq MSHR miss cycles
system.cpu.dcache.WriteReq_mshr_miss_latency::total   4225119000                       # number of WriteReq MSHR miss cycles
system.cpu.dcache.WriteReq_mshr_miss_rate::.cpu.data     0.003021                       # mshr miss rate for WriteReq accesses
system.cpu.dcache.WriteReq_mshr_miss_rate::total     0.003021                       # mshr miss rate for WriteReq accesses
system.cpu.dcache.WriteReq_avg_mshr_miss_latency::.cpu.data 98199.205132                       # average WriteReq mshr miss latency
system.cpu.dcache.WriteReq_avg_mshr_miss_latency::total 98199.205132                       # average WriteReq mshr miss latency
system.cpu.dcache.SoftPFReq_hits::.cpu.data         3276                       # number of SoftPFReq hits
system.cpu.dcache.SoftPFReq_hits::total          3276                       # number of SoftPFReq hits
system.cpu.dcache.SoftPFReq_misses::.cpu.data           67                       # number of SoftPFReq misses
system.cpu.dcache.SoftPFReq_misses::total           67                       # number of SoftPFReq misses
system.cpu.dcache.SoftPFReq_accesses::.cpu.data         3343                       # number of SoftPFReq accesses(hits+misses)
system.cpu.dcache.SoftPFReq_accesses::total         3343                       # number of SoftPFReq accesses(hits+misses)
system.cpu.dcache.SoftPFReq_miss_rate::.cpu.data     0.020042                       # miss rate for SoftPFReq accesses
system.cpu.dcache.SoftPFReq_miss_rate::total     0.020042                       # miss rate for SoftPFReq accesses
system.cpu.dcache.SoftPFReq_mshr_misses::.cpu.data           63                       # number of SoftPFReq MSHR misses
system.cpu.dcache.SoftPFReq_mshr_misses::total           63                       # number of SoftPFReq MSHR misses
system.cpu.dcache.SoftPFReq_mshr_miss_latency::.cpu.data      2995000                       # number of SoftPFReq MSHR miss cycles
system.cpu.dcache.SoftPFReq_mshr_miss_latency::total      2995000                       # number of SoftPFReq MSHR miss cycles
system.cpu.dcache.SoftPFReq_mshr_miss_rate::.cpu.data     0.018845                       # mshr miss rate for SoftPFReq accesses
system.cpu.dcache.SoftPFReq_mshr_miss_rate::total     0.018845                       # mshr miss rate for SoftPFReq accesses
system.cpu.dcache.SoftPFReq_avg_mshr_miss_latency::.cpu.data 47539.682540                       # average SoftPFReq mshr miss latency
system.cpu.dcache.SoftPFReq_avg_mshr_miss_latency::total 47539.682540                       # average SoftPFReq mshr miss latency
system.cpu.dcache.LoadLockedReq_hits::.cpu.data        89006                       # number of LoadLockedReq hits
system.cpu.dcache.LoadLockedReq_hits::total        89006                       # number of LoadLockedReq hits
system.cpu.dcache.LoadLockedReq_accesses::.cpu.data        89006                       # number of LoadLockedReq accesses(hits+misses)
system.cpu.dcache.LoadLockedReq_accesses::total        89006                       # number of LoadLockedReq accesses(hits+misses)
system.cpu.dcache.StoreCondReq_hits::.cpu.data        89006                       # number of StoreCondReq hits
system.cpu.dcache.StoreCondReq_hits::total        89006                       # number of StoreCondReq hits
system.cpu.dcache.StoreCondReq_accesses::.cpu.data        89006                       # number of StoreCondReq accesses(hits+misses)
system.cpu.dcache.StoreCondReq_accesses::total        89006                       # number of StoreCondReq accesses(hits+misses)
system.cpu.dcache.power_state.pwrStateResidencyTicks::UNDEFINED 119799989000                       # Cumulative time (in ticks) in various power states
system.cpu.dcache.tags.tagsinuse          1020.684562                       # Cycle average of tags in use
system.cpu.dcache.tags.total_refs            35810406                       # Total number of references to valid blocks.
system.cpu.dcache.tags.sampled_refs            106529                       # Sample count of references to valid blocks.
system.cpu.dcache.tags.avg_refs            336.156408                       # Average number of references to valid blocks.
system.cpu.dcache.tags.warmup_cycle            223000                       # Cycle when the warmup percentage was hit.
system.cpu.dcache.tags.occ_blocks::.cpu.data  1020.684562                       # Average occupied blocks per requestor
system.cpu.dcache.tags.occ_percent::.cpu.data     0.996762                       # Average percentage of cache occupancy
system.cpu.dcache.tags.occ_percent::total     0.996762                       # Average percentage of cache occupancy
system.cpu.dcache.tags.occ_task_id_blocks::1024         1024                       # Occupied blocks per task id
system.cpu.dcache.tags.age_task_id_blocks_1024::0            5                       # Occupied blocks per task id
system.cpu.dcache.tags.age_task_id_blocks_1024::1           23                       # Occupied blocks per task id
system.cpu.dcache.tags.age_task_id_blocks_1024::2          256                       # Occupied blocks per task id
system.cpu.dcache.tags.age_task_id_blocks_1024::3          740                       # Occupied blocks per task id
system.cpu.dcache.tags.occ_task_id_percent::1024            1                       # Percentage of cache occupancy per task id
system.cpu.dcache.tags.tag_accesses          35942370                       # Number of tag accesses
system.cpu.dcache.tags.data_accesses         35942370                       # Number of data accesses
system.cpu.dcache.tags.power_state.pwrStateResidencyTicks::UNDEFINED 119799989000                       # Cumulative time (in ticks) in various power states
system.cpu.dtb.instHits                             0                       # ITB inst hits
system.cpu.dtb.instMisses                           0                       # ITB inst misses
system.cpu.dtb.readHits                             0                       # DTB read hits
system.cpu.dtb.readMisses                           0                       # DTB read misses
system.cpu.dtb.writeHits                            0                       # DTB write hits
system.cpu.dtb.writeMisses                          0                       # DTB write misses
system.cpu.dtb.inserts                              0                       # Number of times an entry is inserted into the TLB
system.cpu.dtb.flushTlb                             0                       # Number of times complete TLB was flushed
system.cpu.dtb.flushTlbMva                          0                       # Number of times TLB was flushed by MVA
system.cpu.dtb.flushTlbMvaAsid                      0                       # Number of times TLB was flushed by MVA & ASID
system.cpu.dtb.flushTlbAsid                         0                       # Number of times TLB was flushed by ASID
system.cpu.dtb.flushedEntries                       0                       # Number of entries that have been flushed from TLB
system.cpu.dtb.alignFaults                          0                       # Number of TLB faults due to alignment restrictions
system.cpu.dtb.prefetchFaults                       0                       # Number of TLB faults due to prefetch
system.cpu.dtb.domainFaults                         0                       # Number of TLB faults due to domain restrictions
system.cpu.dtb.permsFaults                          0                       # Number of TLB faults due to permissions restrictions
system.cpu.dtb.readAccesses                         0                       # DTB read accesses
system.cpu.dtb.writeAccesses                        0                       # DTB write accesses
system.cpu.dtb.instAccesses                         0                       # ITB inst accesses
system.cpu.dtb.hits                                 0                       # Total TLB (inst and data) hits
system.cpu.dtb.misses                               0                       # Total TLB (inst and data) misses
system.cpu.dtb.accesses                             0                       # Total TLB (inst and data) accesses
system.cpu.dtb.stage2_mmu.stage2_tlb.instHits            0                       # ITB inst hits
system.cpu.dtb.stage2_mmu.stage2_tlb.instMisses            0                       # ITB inst misses
system.cpu.dtb.stage2_mmu.stage2_tlb.readHits            0                       # DTB read hits
system.cpu.dtb.stage2_mmu.stage2_tlb.readMisses            0                       # DTB read misses
system.cpu.dtb.stage2_mmu.stage2_tlb.writeHits            0                       # DTB write hits
system.cpu.dtb.stage2_mmu.stage2_tlb.writeMisses            0                       # DTB write misses
system.cpu.dtb.stage2_mmu.stage2_tlb.inserts            0                       # Number of times an entry is inserted into the TLB
system.cpu.dtb.stage2_mmu.stage2_tlb.flushTlb            0                       # Number of times complete TLB was flushed
system.cpu.dtb.stage2_mmu.stage2_tlb.flushTlbMva            0                       # Number of times TLB was flushed by MVA
system.cpu.dtb.stage2_mmu.stage2_tlb.flushTlbMvaAsid            0                       # Number of times TLB was flushed by MVA & ASID
system.cpu.dtb.stage2_mmu.stage2_tlb.flushTlbAsid            0                       # Number of times TLB was flushed by ASID
system.cpu.dtb.stage2_mmu.stage2_tlb.flushedEntries            0                       # Number of entries that have been flushed from TLB
system.cpu.dtb.stage2_mmu.stage2_tlb.alignFaults            0                       # Number of TLB faults due to alignment restrictions
system.cpu.dtb.stage2_mmu.stage2_tlb.prefetchFaults            0                       # Number of TLB faults due to prefetch
system.cpu.dtb.stage2_mmu.stage2_tlb.domainFaults            0                       # Number of TLB faults due to domain restrictions
system.cpu.dtb.stage2_mmu.stage2_tlb.permsFaults            0                       # Number of TLB faults due to permissions restrictions
system.cpu.dtb.stage2_mmu.stage2_tlb.readAccesses            0                       # DTB read accesses
system.cpu.dtb.stage2_mmu.stage2_tlb.writeAccesses            0                       # DTB write accesses
system.cpu.dtb.stage2_mmu.stage2_tlb.instAccesses            0                       # ITB inst accesses
system.cpu.dtb.stage2_mmu.stage2_tlb.hits            0                       # Total TLB (inst and data) hits
system.cpu.dtb.stage2_mmu.stage2_tlb.misses            0                       # Total TLB (inst and data) misses
system.cpu.dtb.stage2_mmu.stage2_tlb.accesses            0                       # Total TLB (inst and data) accesses
system.cpu.dtb.stage2_mmu.stage2_tlb.walker.walks            0                       # Table walker walks requested
system.cpu.dtb.stage2_mmu.stage2_tlb.walker.requestOrigin_Requested::Data            0                       # Table walker requests started/completed, data/inst
system.cpu.dtb.stage2_mmu.stage2_tlb.walker.requestOrigin_Requested::Inst            0                       # Table walker requests started/completed, data/inst
system.cpu.dtb.stage2_mmu.stage2_tlb.walker.requestOrigin_Requested::total            0                       # Table walker requests started/completed, data/inst
system.cpu.dtb.stage2_mmu.stage2_tlb.walker.requestOrigin_Completed::Data            0                       # Table walker requests started/completed, data/inst
system.cpu.dtb.stage2_mmu.stage2_tlb.walker.requestOrigin_Completed::Inst            0                       # Table walker requests started/completed, data/inst
system.cpu.dtb.stage2_mmu.stage2_tlb.walker.requestOrigin_Completed::total            0                       # Table walker requests started/completed, data/inst
system.cpu.dtb.stage2_mmu.stage2_tlb.walker.requestOrigin::total            0                       # Table walker requests started/completed, data/inst
system.cpu.dtb.stage2_mmu.stage2_tlb.walker.power_state.pwrStateResidencyTicks::UNDEFINED 119799989000                       # Cumulative time (in ticks) in various power states
system.cpu.dtb.walker.walks                         0                       # Table walker walks requested
system.cpu.dtb.walker.requestOrigin_Requested::Data            0                       # Table walker requests started/completed, data/inst
system.cpu.dtb.walker.requestOrigin_Requested::Inst            0                       # Table walker requests started/completed, data/inst
system.cpu.dtb.walker.requestOrigin_Requested::total            0                       # Table walker requests started/completed, data/inst
system.cpu.dtb.walker.requestOrigin_Completed::Data            0                       # Table walker requests started/completed, data/inst
system.cpu.dtb.walker.requestOrigin_Completed::Inst            0                       # Table walker requests started/completed, data/inst
system.cpu.dtb.walker.requestOrigin_Completed::total            0                       # Table walker requests started/completed, data/inst
system.cpu.dtb.walker.requestOrigin::total            0                       # Table walker requests started/completed, data/inst
system.cpu.dtb.walker.power_state.pwrStateResidencyTicks::UNDEFINED 119799989000                       # Cumulative time (in ticks) in various power states
system.cpu.fetch2.intInstructions            49405296                       # Number of integer instructions successfully decoded
system.cpu.fetch2.fpInstructions                    0                       # Number of floating point instructions successfully decoded
system.cpu.fetch2.vecInstructions                   0                       # Number of SIMD instructions successfully decoded
system.cpu.fetch2.loadInstructions           17098656                       # Number of memory load instructions successfully decoded
system.cpu.fetch2.storeInstructions           9762387                       # Number of memory store instructions successfully decoded
system.cpu.fetch2.amoInstructions                   0                       # Number of memory atomic instructions successfully decoded
system.cpu.icache.demand_hits::.cpu.inst     27551690                       # number of demand (read+write) hits
system.cpu.icache.demand_hits::total         27551690                       # number of demand (read+write) hits
system.cpu.icache.overall_hits::.cpu.inst     27551690                       # number of overall hits
system.cpu.icache.overall_hits::total        27551690                       # number of overall hits
system.cpu.icache.demand_misses::.cpu.inst       256039                       # number of demand (read+write) misses
system.cpu.icache.demand_misses::total         256039                       # number of demand (read+write) misses
system.cpu.icache.overall_misses::.cpu.inst       256039                       # number of overall misses
system.cpu.icache.overall_misses::total        256039                       # number of overall misses
system.cpu.icache.demand_miss_latency::.cpu.inst   6696974000                       # number of demand (read+write) miss cycles
system.cpu.icache.demand_miss_latency::total   6696974000                       # number of demand (read+write) miss cycles
system.cpu.icache.overall_miss_latency::.cpu.inst   6696974000                       # number of overall miss cycles
system.cpu.icache.overall_miss_latency::total   6696974000                       # number of overall miss cycles
system.cpu.icache.demand_accesses::.cpu.inst     27807729                       # number of demand (read+write) accesses
system.cpu.icache.demand_accesses::total     27807729                       # number of demand (read+write) accesses
system.cpu.icache.overall_accesses::.cpu.inst     27807729                       # number of overall (read+write) accesses
system.cpu.icache.overall_accesses::total     27807729                       # number of overall (read+write) accesses
system.cpu.icache.demand_miss_rate::.cpu.inst     0.009207                       # miss rate for demand accesses
system.cpu.icache.demand_miss_rate::total     0.009207                       # miss rate for demand accesses
system.cpu.icache.overall_miss_rate::.cpu.inst     0.009207                       # miss rate for overall accesses
system.cpu.icache.overall_miss_rate::total     0.009207                       # miss rate for overall accesses
system.cpu.icache.demand_avg_miss_latency::.cpu.inst 26156.069974                       # average overall miss latency
system.cpu.icache.demand_avg_miss_latency::total 26156.069974                       # average overall miss latency
system.cpu.icache.overall_avg_miss_latency::.cpu.inst 26156.069974                       # average overall miss latency
system.cpu.icache.overall_avg_miss_latency::total 26156.069974                       # average overall miss latency
system.cpu.icache.blocked_cycles::no_mshrs            0                       # number of cycles access was blocked
system.cpu.icache.blocked_cycles::no_targets            0                       # number of cycles access was blocked
system.cpu.icache.blocked::no_mshrs                 0                       # number of cycles access was blocked
system.cpu.icache.blocked::no_targets               0                       # number of cycles access was blocked
system.cpu.icache.avg_blocked_cycles::no_mshrs          nan                       # average number of cycles each access was blocked
system.cpu.icache.avg_blocked_cycles::no_targets          nan                       # average number of cycles each access was blocked
system.cpu.icache.writebacks::.writebacks       255593                       # number of writebacks
system.cpu.icache.writebacks::total            255593                       # number of writebacks
system.cpu.icache.demand_mshr_misses::.cpu.inst       256039                       # number of demand (read+write) MSHR misses
system.cpu.icache.demand_mshr_misses::total       256039                       # number of demand (read+write) MSHR misses
system.cpu.icache.overall_mshr_misses::.cpu.inst       256039                       # number of overall MSHR misses
system.cpu.icache.overall_mshr_misses::total       256039                       # number of overall MSHR misses
system.cpu.icache.demand_mshr_miss_latency::.cpu.inst   6184896000                       # number of demand (read+write) MSHR miss cycles
system.cpu.icache.demand_mshr_miss_latency::total   6184896000                       # number of demand (read+write) MSHR miss cycles
system.cpu.icache.overall_mshr_miss_latency::.cpu.inst   6184896000                       # number of overall MSHR miss cycles
system.cpu.icache.overall_mshr_miss_latency::total   6184896000                       # number of overall MSHR miss cycles
system.cpu.icache.demand_mshr_miss_rate::.cpu.inst     0.009207                       # mshr miss rate for demand accesses
system.cpu.icache.demand_mshr_miss_rate::total     0.009207                       # mshr miss rate for demand accesses
system.cpu.icache.overall_mshr_miss_rate::.cpu.inst     0.009207                       # mshr miss rate for overall accesses
system.cpu.icache.overall_mshr_miss_rate::total     0.009207                       # mshr miss rate for overall accesses
system.cpu.icache.demand_avg_mshr_miss_latency::.cpu.inst 24156.069974                       # average overall mshr miss latency
system.cpu.icache.demand_avg_mshr_miss_latency::total 24156.069974                       # average overall mshr miss latency
system.cpu.icache.overall_avg_mshr_miss_latency::.cpu.inst 24156.069974                       # average overall mshr miss latency
system.cpu.icache.overall_avg_mshr_miss_latency::total 24156.069974                       # average overall mshr miss latency
system.cpu.icache.replacements                 255593                       # number of replacements
system.cpu.icache.ReadReq_hits::.cpu.inst     27551690                       # number of ReadReq hits
system.cpu.icache.ReadReq_hits::total        27551690                       # number of ReadReq hits
system.cpu.icache.ReadReq_misses::.cpu.inst       256039                       # number of ReadReq misses
system.cpu.icache.ReadReq_misses::total        256039                       # number of ReadReq misses
system.cpu.icache.ReadReq_miss_latency::.cpu.inst   6696974000                       # number of ReadReq miss cycles
system.cpu.icache.ReadReq_miss_latency::total   6696974000                       # number of ReadReq miss cycles
system.cpu.icache.ReadReq_accesses::.cpu.inst     27807729                       # number of ReadReq accesses(hits+misses)
system.cpu.icache.ReadReq_accesses::total     27807729                       # number of ReadReq accesses(hits+misses)
system.cpu.icache.ReadReq_miss_rate::.cpu.inst     0.009207                       # miss rate for ReadReq accesses
system.cpu.icache.ReadReq_miss_rate::total     0.009207                       # miss rate for ReadReq accesses
system.cpu.icache.ReadReq_avg_miss_latency::.cpu.inst 26156.069974                       # average ReadReq miss latency
system.cpu.icache.ReadReq_avg_miss_latency::total 26156.069974                       # average ReadReq miss latency
system.cpu.icache.ReadReq_mshr_misses::.cpu.inst       256039                       # number of ReadReq MSHR misses
system.cpu.icache.ReadReq_mshr_misses::total       256039                       # number of ReadReq MSHR misses
system.cpu.icache.ReadReq_mshr_miss_latency::.cpu.inst   6184896000                       # number of ReadReq MSHR miss cycles
system.cpu.icache.ReadReq_mshr_miss_latency::total   6184896000                       # number of ReadReq MSHR miss cycles
system.cpu.icache.ReadReq_mshr_miss_rate::.cpu.inst     0.009207                       # mshr miss rate for ReadReq accesses
system.cpu.icache.ReadReq_mshr_miss_rate::total     0.009207                       # mshr miss rate for ReadReq accesses
system.cpu.icache.ReadReq_avg_mshr_miss_latency::.cpu.inst 24156.069974                       # average ReadReq mshr miss latency
system.cpu.icache.ReadReq_avg_mshr_miss_latency::total 24156.069974                       # average ReadReq mshr miss latency
system.cpu.icache.power_state.pwrStateResidencyTicks::UNDEFINED 119799989000                       # Cumulative time (in ticks) in various power states
system.cpu.icache.tags.tagsinuse           445.435619                       # Cycle average of tags in use
system.cpu.icache.tags.total_refs            27807729                       # Total number of references to valid blocks.
system.cpu.icache.tags.sampled_refs            256039                       # Sample count of references to valid blocks.
system.cpu.icache.tags.avg_refs            108.607396                       # Average number of references to valid blocks.
system.cpu.icache.tags.warmup_cycle            108000                       # Cycle when the warmup percentage was hit.
system.cpu.icache.tags.occ_blocks::.cpu.inst   445.435619                       # Average occupied blocks per requestor
system.cpu.icache.tags.occ_percent::.cpu.inst     0.434996                       # Average percentage of cache occupancy
system.cpu.icache.tags.occ_percent::total     0.434996                       # Average percentage of cache occupancy
system.cpu.icache.tags.occ_task_id_blocks::1024          446                       # Occupied blocks per task id
system.cpu.icache.tags.age_task_id_blocks_1024::0            1                       # Occupied blocks per task id
system.cpu.icache.tags.age_task_id_blocks_1024::3            5                       # Occupied blocks per task id
system.cpu.icache.tags.age_task_id_blocks_1024::4          440                       # Occupied blocks per task id
system.cpu.icache.tags.occ_task_id_percent::1024     0.435547                       # Percentage of cache occupancy per task id
system.cpu.icache.tags.tag_accesses          28063768                       # Number of tag accesses
system.cpu.icache.tags.data_accesses         28063768                       # Number of data accesses
system.cpu.icache.tags.power_state.pwrStateResidencyTicks::UNDEFINED 119799989000                       # Cumulative time (in ticks) in various power states
system.cpu.itb.instHits                             0                       # ITB inst hits
system.cpu.itb.instMisses                           0                       # ITB inst misses
system.cpu.itb.readHits                             0                       # DTB read hits
system.cpu.itb.readMisses                           0                       # DTB read misses
system.cpu.itb.writeHits                            0                       # DTB write hits
system.cpu.itb.writeMisses                          0                       # DTB write misses
system.cpu.itb.inserts                              0                       # Number of times an entry is inserted into the TLB
system.cpu.itb.flushTlb                             0                       # Number of times complete TLB was flushed
system.cpu.itb.flushTlbMva                          0                       # Number of times TLB was flushed by MVA
system.cpu.itb.flushTlbMvaAsid                      0                       # Number of times TLB was flushed by MVA & ASID
system.cpu.itb.flushTlbAsid                         0                       # Number of times TLB was flushed by ASID
system.cpu.itb.flushedEntries                       0                       # Number of entries that have been flushed from TLB
system.cpu.itb.alignFaults                          0                       # Number of TLB faults due to alignment restrictions
system.cpu.itb.prefetchFaults                       0                       # Number of TLB faults due to prefetch
system.cpu.itb.domainFaults                         0                       # Number of TLB faults due to domain restrictions
system.cpu.itb.permsFaults                          0                       # Number of TLB faults due to permissions restrictions
system.cpu.itb.readAccesses                         0                       # DTB read accesses
system.cpu.itb.writeAccesses                        0                       # DTB write accesses
system.cpu.itb.instAccesses                         0                       # ITB inst accesses
system.cpu.itb.hits                                 0                       # Total TLB (inst and data) hits
system.cpu.itb.misses                               0                       # Total TLB (inst and data) misses
system.cpu.itb.accesses                             0                       # Total TLB (inst and data) accesses
system.cpu.itb.stage2_mmu.stage2_tlb.instHits            0                       # ITB inst hits
system.cpu.itb.stage2_mmu.stage2_tlb.instMisses            0                       # ITB inst misses
system.cpu.itb.stage2_mmu.stage2_tlb.readHits            0                       # DTB read hits
system.cpu.itb.stage2_mmu.stage2_tlb.readMisses            0                       # DTB read misses
system.cpu.itb.stage2_mmu.stage2_tlb.writeHits            0                       # DTB write hits
system.cpu.itb.stage2_mmu.stage2_tlb.writeMisses            0                       # DTB write misses
system.cpu.itb.stage2_mmu.stage2_tlb.inserts            0                       # Number of times an entry is inserted into the TLB
system.cpu.itb.stage2_mmu.stage2_tlb.flushTlb            0                       # Number of times complete TLB was flushed
system.cpu.itb.stage2_mmu.stage2_tlb.flushTlbMva            0                       # Number of times TLB was flushed by MVA
system.cpu.itb.stage2_mmu.stage2_tlb.flushTlbMvaAsid            0                       # Number of times TLB was flushed by MVA & ASID
system.cpu.itb.stage2_mmu.stage2_tlb.flushTlbAsid            0                       # Number of times TLB was flushed by ASID
system.cpu.itb.stage2_mmu.stage2_tlb.flushedEntries            0                       # Number of entries that have been flushed from TLB
system.cpu.itb.stage2_mmu.stage2_tlb.alignFaults            0                       # Number of TLB faults due to alignment restrictions
system.cpu.itb.stage2_mmu.stage2_tlb.prefetchFaults            0                       # Number of TLB faults due to prefetch
system.cpu.itb.stage2_mmu.stage2_tlb.domainFaults            0                       # Number of TLB faults due to domain restrictions
system.cpu.itb.stage2_mmu.stage2_tlb.permsFaults            0                       # Number of TLB faults due to permissions restrictions
system.cpu.itb.stage2_mmu.stage2_tlb.readAccesses            0                       # DTB read accesses
system.cpu.itb.stage2_mmu.stage2_tlb.writeAccesses            0                       # DTB write accesses
system.cpu.itb.stage2_mmu.stage2_tlb.instAccesses            0                       # ITB inst accesses
system.cpu.itb.stage2_mmu.stage2_tlb.hits            0                       # Total TLB (inst and data) hits
system.cpu.itb.stage2_mmu.stage2_tlb.misses            0                       # Total TLB (inst and data) misses
system.cpu.itb.stage2_mmu.stage2_tlb.accesses            0                       # Total TLB (inst and data) accesses
system.cpu.itb.stage2_mmu.stage2_tlb.walker.walks            0                       # Table walker walks requested
system.cpu.itb.stage2_mmu.stage2_tlb.walker.requestOrigin_Requested::Data            0                       # Table walker requests started/completed, data/inst
system.cpu.itb.stage2_mmu.stage2_tlb.walker.requestOrigin_Requested::Inst            0                       # Table walker requests started/completed, data/inst
system.cpu.itb.stage2_mmu.stage2_tlb.walker.requestOrigin_Requested::total            0                       # Table walker requests started/completed, data/inst
system.cpu.itb.stage2_mmu.stage2_tlb.walker.requestOrigin_Completed::Data            0                       # Table walker requests started/completed, data/inst
system.cpu.itb.stage2_mmu.stage2_tlb.walker.requestOrigin_Completed::Inst            0                       # Table walker requests started/completed, data/inst
system.cpu.itb.stage2_mmu.stage2_tlb.walker.requestOrigin_Completed::total            0                       # Table walker requests started/completed, data/inst
system.cpu.itb.stage2_mmu.stage2_tlb.walker.requestOrigin::total            0                       # Table walker requests started/completed, data/inst
system.cpu.itb.stage2_mmu.stage2_tlb.walker.power_state.pwrStateResidencyTicks::UNDEFINED 119799989000                       # Cumulative time (in ticks) in various power states
system.cpu.itb.walker.walks                         0                       # Table walker walks requested
system.cpu.itb.walker.requestOrigin_Requested::Data            0                       # Table walker requests started/completed, data/inst
system.cpu.itb.walker.requestOrigin_Requested::Inst            0                       # Table walker requests started/completed, data/inst
system.cpu.itb.walker.requestOrigin_Requested::total            0                       # Table walker requests started/completed, data/inst
system.cpu.itb.walker.requestOrigin_Completed::Data            0                       # Table walker requests started/completed, data/inst
system.cpu.itb.walker.requestOrigin_Completed::Inst            0                       # Table walker requests started/completed, data/inst
system.cpu.itb.walker.requestOrigin_Completed::total            0                       # Table walker requests started/completed, data/inst
system.cpu.itb.walker.requestOrigin::total            0                       # Table walker requests started/completed, data/inst
system.cpu.itb.walker.power_state.pwrStateResidencyTicks::UNDEFINED 119799989000                       # Cumulative time (in ticks) in various power states
system.cpu.power_state.pwrStateResidencyTicks::ON 119799989000                       # Cumulative time (in ticks) in various power states
system.cpu.thread_0.numInsts                100000000                       # Number of Instructions committed
system.cpu.thread_0.numOps                  109423148                       # Number of Ops committed
system.cpu.thread_0.numMemRefs                      0                       # Number of Memory References
system.cpu_clk_domain.clock                      1000                       # Clock period in ticks
system.cpu_voltage_domain.voltage                   1                       # Voltage in Volts
system.l2.demand_hits::.cpu.inst               255515                       # number of demand (read+write) hits
system.l2.demand_hits::.cpu.data                60506                       # number of demand (read+write) hits
system.l2.demand_hits::total                   316021                       # number of demand (read+write) hits
system.l2.overall_hits::.cpu.inst              255515                       # number of overall hits
system.l2.overall_hits::.cpu.data               60506                       # number of overall hits
system.l2.overall_hits::total                  316021                       # number of overall hits
system.l2.demand_misses::.cpu.inst                524                       # number of demand (read+write) misses
system.l2.demand_misses::.cpu.data              46023                       # number of demand (read+write) misses
system.l2.demand_misses::total                  46547                       # number of demand (read+write) misses
system.l2.overall_misses::.cpu.inst               524                       # number of overall misses
system.l2.overall_misses::.cpu.data             46023                       # number of overall misses
system.l2.overall_misses::total                 46547                       # number of overall misses
system.l2.demand_miss_latency::.cpu.inst     50943000                       # number of demand (read+write) miss cycles
system.l2.demand_miss_latency::.cpu.data   4785186000                       # number of demand (read+write) miss cycles
system.l2.demand_miss_latency::total       4836129000                       # number of demand (read+write) miss cycles
system.l2.overall_miss_latency::.cpu.inst     50943000                       # number of overall miss cycles
system.l2.overall_miss_latency::.cpu.data   4785186000                       # number of overall miss cycles
system.l2.overall_miss_latency::total      4836129000                       # number of overall miss cycles
system.l2.demand_accesses::.cpu.inst           256039                       # number of demand (read+write) accesses
system.l2.demand_accesses::.cpu.data           106529                       # number of demand (read+write) accesses
system.l2.demand_accesses::total               362568                       # number of demand (read+write) accesses
system.l2.overall_accesses::.cpu.inst          256039                       # number of overall (read+write) accesses
system.l2.overall_accesses::.cpu.data          106529                       # number of overall (read+write) accesses
system.l2.overall_accesses::total              362568                       # number of overall (read+write) accesses
system.l2.demand_miss_rate::.cpu.inst        0.002047                       # miss rate for demand accesses
system.l2.demand_miss_rate::.cpu.data        0.432023                       # miss rate for demand accesses
system.l2.demand_miss_rate::total            0.128381                       # miss rate for demand accesses
system.l2.overall_miss_rate::.cpu.inst       0.002047                       # miss rate for overall accesses
system.l2.overall_miss_rate::.cpu.data       0.432023                       # miss rate for overall accesses
system.l2.overall_miss_rate::total           0.128381                       # miss rate for overall accesses
system.l2.demand_avg_miss_latency::.cpu.inst 97219.465649                       # average overall miss latency
system.l2.demand_avg_miss_latency::.cpu.data 103973.795711                       # average overall miss latency
system.l2.demand_avg_miss_latency::total 103897.759254                       # average overall miss latency
system.l2.overall_avg_miss_latency::.cpu.inst 97219.465649                       # average overall miss latency
system.l2.overall_avg_miss_latency::.cpu.data 103973.795711                       # average overall miss latency
system.l2.overall_avg_miss_latency::total 103897.759254                       # average overall miss latency
system.l2.blocked_cycles::no_mshrs                  0                       # number of cycles access was blocked
system.l2.blocked_cycles::no_targets                0                       # number of cycles access was blocked
system.l2.blocked::no_mshrs                         0                       # number of cycles access was blocked
system.l2.blocked::no_targets                       0                       # number of cycles access was blocked
system.l2.avg_blocked_cycles::no_mshrs            nan                       # average number of cycles each access was blocked
system.l2.avg_blocked_cycles::no_targets          nan                       # average number of cycles each access was blocked
system.l2.writebacks::.writebacks               37640                       # number of writebacks
system.l2.writebacks::total                     37640                       # number of writebacks
system.l2.demand_mshr_hits::.cpu.data               5                       # number of demand (read+write) MSHR hits
system.l2.demand_mshr_hits::total                   5                       # number of demand (read+write) MSHR hits
system.l2.overall_mshr_hits::.cpu.data              5                       # number of overall MSHR hits
system.l2.overall_mshr_hits::total                  5                       # number of overall MSHR hits
system.l2.demand_mshr_misses::.cpu.inst           524                       # number of demand (read+write) MSHR misses
system.l2.demand_mshr_misses::.cpu.data         46018                       # number of demand (read+write) MSHR misses
system.l2.demand_mshr_misses::total             46542                       # number of demand (read+write) MSHR misses
system.l2.overall_mshr_misses::.cpu.inst          524                       # number of overall MSHR misses
system.l2.overall_mshr_misses::.cpu.data        46018                       # number of overall MSHR misses
system.l2.overall_mshr_misses::total            46542                       # number of overall MSHR misses
system.l2.demand_mshr_miss_latency::.cpu.inst     40463000                       # number of demand (read+write) MSHR miss cycles
system.l2.demand_mshr_miss_latency::.cpu.data   3864414000                       # number of demand (read+write) MSHR miss cycles
system.l2.demand_mshr_miss_latency::total   3904877000                       # number of demand (read+write) MSHR miss cycles
system.l2.overall_mshr_miss_latency::.cpu.inst     40463000                       # number of overall MSHR miss cycles
system.l2.overall_mshr_miss_latency::.cpu.data   3864414000                       # number of overall MSHR miss cycles
system.l2.overall_mshr_miss_latency::total   3904877000                       # number of overall MSHR miss cycles
system.l2.demand_mshr_miss_rate::.cpu.inst     0.002047                       # mshr miss rate for demand accesses
system.l2.demand_mshr_miss_rate::.cpu.data     0.431976                       # mshr miss rate for demand accesses
system.l2.demand_mshr_miss_rate::total       0.128368                       # mshr miss rate for demand accesses
system.l2.overall_mshr_miss_rate::.cpu.inst     0.002047                       # mshr miss rate for overall accesses
system.l2.overall_mshr_miss_rate::.cpu.data     0.431976                       # mshr miss rate for overall accesses
system.l2.overall_mshr_miss_rate::total      0.128368                       # mshr miss rate for overall accesses
system.l2.demand_avg_mshr_miss_latency::.cpu.inst 77219.465649                       # average overall mshr miss latency
system.l2.demand_avg_mshr_miss_latency::.cpu.data 83976.139771                       # average overall mshr miss latency
system.l2.demand_avg_mshr_miss_latency::total 83900.068755                       # average overall mshr miss latency
system.l2.overall_avg_mshr_miss_latency::.cpu.inst 77219.465649                       # average overall mshr miss latency
system.l2.overall_avg_mshr_miss_latency::.cpu.data 83976.139771                       # average overall mshr miss latency
system.l2.overall_avg_mshr_miss_latency::total 83900.068755                       # average overall mshr miss latency
system.l2.replacements                          38742                       # number of replacements
system.l2.WritebackDirty_hits::.writebacks        77889                       # number of WritebackDirty hits
system.l2.WritebackDirty_hits::total            77889                       # number of WritebackDirty hits
system.l2.WritebackDirty_accesses::.writebacks        77889                       # number of WritebackDirty accesses(hits+misses)
system.l2.WritebackDirty_accesses::total        77889                       # number of WritebackDirty accesses(hits+misses)
system.l2.WritebackClean_hits::.writebacks       255592                       # number of WritebackClean hits
system.l2.WritebackClean_hits::total           255592                       # number of WritebackClean hits
system.l2.WritebackClean_accesses::.writebacks       255592                       # number of WritebackClean accesses(hits+misses)
system.l2.WritebackClean_accesses::total       255592                       # number of WritebackClean accesses(hits+misses)
system.l2.CleanEvict_mshr_misses::.writebacks           98                       # number of CleanEvict MSHR misses
system.l2.CleanEvict_mshr_misses::total            98                       # number of CleanEvict MSHR misses
system.l2.CleanEvict_mshr_miss_rate::.writebacks          inf                       # mshr miss rate for CleanEvict accesses
system.l2.CleanEvict_mshr_miss_rate::total          inf                       # mshr miss rate for CleanEvict accesses
system.l2.ReadExReq_hits::.cpu.data              4234                       # number of ReadExReq hits
system.l2.ReadExReq_hits::total                  4234                       # number of ReadExReq hits
system.l2.ReadExReq_misses::.cpu.data           38792                       # number of ReadExReq misses
system.l2.ReadExReq_misses::total               38792                       # number of ReadExReq misses
system.l2.ReadExReq_miss_latency::.cpu.data   3990848000                       # number of ReadExReq miss cycles
system.l2.ReadExReq_miss_latency::total    3990848000                       # number of ReadExReq miss cycles
system.l2.ReadExReq_accesses::.cpu.data         43026                       # number of ReadExReq accesses(hits+misses)
system.l2.ReadExReq_accesses::total             43026                       # number of ReadExReq accesses(hits+misses)
system.l2.ReadExReq_miss_rate::.cpu.data     0.901594                       # miss rate for ReadExReq accesses
system.l2.ReadExReq_miss_rate::total         0.901594                       # miss rate for ReadExReq accesses
system.l2.ReadExReq_avg_miss_latency::.cpu.data 102878.119200                       # average ReadExReq miss latency
system.l2.ReadExReq_avg_miss_latency::total 102878.119200                       # average ReadExReq miss latency
system.l2.ReadExReq_mshr_misses::.cpu.data        38792                       # number of ReadExReq MSHR misses
system.l2.ReadExReq_mshr_misses::total          38792                       # number of ReadExReq MSHR misses
system.l2.ReadExReq_mshr_miss_latency::.cpu.data   3215008000                       # number of ReadExReq MSHR miss cycles
system.l2.ReadExReq_mshr_miss_latency::total   3215008000                       # number of ReadExReq MSHR miss cycles
system.l2.ReadExReq_mshr_miss_rate::.cpu.data     0.901594                       # mshr miss rate for ReadExReq accesses
system.l2.ReadExReq_mshr_miss_rate::total     0.901594                       # mshr miss rate for ReadExReq accesses
system.l2.ReadExReq_avg_mshr_miss_latency::.cpu.data 82878.119200                       # average ReadExReq mshr miss latency
system.l2.ReadExReq_avg_mshr_miss_latency::total 82878.119200                       # average ReadExReq mshr miss latency
system.l2.ReadCleanReq_hits::.cpu.inst         255515                       # number of ReadCleanReq hits
system.l2.ReadCleanReq_hits::total             255515                       # number of ReadCleanReq hits
system.l2.ReadCleanReq_misses::.cpu.inst          524                       # number of ReadCleanReq misses
system.l2.ReadCleanReq_misses::total              524                       # number of ReadCleanReq misses
system.l2.ReadCleanReq_miss_latency::.cpu.inst     50943000                       # number of ReadCleanReq miss cycles
system.l2.ReadCleanReq_miss_latency::total     50943000                       # number of ReadCleanReq miss cycles
system.l2.ReadCleanReq_accesses::.cpu.inst       256039                       # number of ReadCleanReq accesses(hits+misses)
system.l2.ReadCleanReq_accesses::total         256039                       # number of ReadCleanReq accesses(hits+misses)
system.l2.ReadCleanReq_miss_rate::.cpu.inst     0.002047                       # miss rate for ReadCleanReq accesses
system.l2.ReadCleanReq_miss_rate::total      0.002047                       # miss rate for ReadCleanReq accesses
system.l2.ReadCleanReq_avg_miss_latency::.cpu.inst 97219.465649                       # average ReadCleanReq miss latency
system.l2.ReadCleanReq_avg_miss_latency::total 97219.465649                       # average ReadCleanReq miss latency
system.l2.ReadCleanReq_mshr_misses::.cpu.inst          524                       # number of ReadCleanReq MSHR misses
system.l2.ReadCleanReq_mshr_misses::total          524                       # number of ReadCleanReq MSHR misses
system.l2.ReadCleanReq_mshr_miss_latency::.cpu.inst     40463000                       # number of ReadCleanReq MSHR miss cycles
system.l2.ReadCleanReq_mshr_miss_latency::total     40463000                       # number of ReadCleanReq MSHR miss cycles
system.l2.ReadCleanReq_mshr_miss_rate::.cpu.inst     0.002047                       # mshr miss rate for ReadCleanReq accesses
system.l2.ReadCleanReq_mshr_miss_rate::total     0.002047                       # mshr miss rate for ReadCleanReq accesses
system.l2.ReadCleanReq_avg_mshr_miss_latency::.cpu.inst 77219.465649                       # average ReadCleanReq mshr miss latency
system.l2.ReadCleanReq_avg_mshr_miss_latency::total 77219.465649                       # average ReadCleanReq mshr miss latency
system.l2.ReadSharedReq_hits::.cpu.data         56272                       # number of ReadSharedReq hits
system.l2.ReadSharedReq_hits::total             56272                       # number of ReadSharedReq hits
system.l2.ReadSharedReq_misses::.cpu.data         7231                       # number of ReadSharedReq misses
system.l2.ReadSharedReq_misses::total            7231                       # number of ReadSharedReq misses
system.l2.ReadSharedReq_miss_latency::.cpu.data    794338000                       # number of ReadSharedReq miss cycles
system.l2.ReadSharedReq_miss_latency::total    794338000                       # number of ReadSharedReq miss cycles
system.l2.ReadSharedReq_accesses::.cpu.data        63503                       # number of ReadSharedReq accesses(hits+misses)
system.l2.ReadSharedReq_accesses::total         63503                       # number of ReadSharedReq accesses(hits+misses)
system.l2.ReadSharedReq_miss_rate::.cpu.data     0.113869                       # miss rate for ReadSharedReq accesses
system.l2.ReadSharedReq_miss_rate::total     0.113869                       # miss rate for ReadSharedReq accesses
system.l2.ReadSharedReq_avg_miss_latency::.cpu.data 109851.749412                       # average ReadSharedReq miss latency
system.l2.ReadSharedReq_avg_miss_latency::total 109851.749412                       # average ReadSharedReq miss latency
system.l2.ReadSharedReq_mshr_hits::.cpu.data            5                       # number of ReadSharedReq MSHR hits
system.l2.ReadSharedReq_mshr_hits::total            5                       # number of ReadSharedReq MSHR hits
system.l2.ReadSharedReq_mshr_misses::.cpu.data         7226                       # number of ReadSharedReq MSHR misses
system.l2.ReadSharedReq_mshr_misses::total         7226                       # number of ReadSharedReq MSHR misses
system.l2.ReadSharedReq_mshr_miss_latency::.cpu.data    649406000                       # number of ReadSharedReq MSHR miss cycles
system.l2.ReadSharedReq_mshr_miss_latency::total    649406000                       # number of ReadSharedReq MSHR miss cycles
system.l2.ReadSharedReq_mshr_miss_rate::.cpu.data     0.113790                       # mshr miss rate for ReadSharedReq accesses
system.l2.ReadSharedReq_mshr_miss_rate::total     0.113790                       # mshr miss rate for ReadSharedReq accesses
system.l2.ReadSharedReq_avg_mshr_miss_latency::.cpu.data 89870.744534                       # average ReadSharedReq mshr miss latency
system.l2.ReadSharedReq_avg_mshr_miss_latency::total 89870.744534                       # average ReadSharedReq mshr miss latency
system.l2.power_state.pwrStateResidencyTicks::UNDEFINED 119799989000                       # Cumulative time (in ticks) in various power states
system.l2.tags.tagsinuse                  8004.316593                       # Cycle average of tags in use
system.l2.tags.total_refs                      722734                       # Total number of references to valid blocks.
system.l2.tags.sampled_refs                     46934                       # Sample count of references to valid blocks.
system.l2.tags.avg_refs                     15.398943                       # Average number of references to valid blocks.
system.l2.tags.warmup_cycle                     87000                       # Cycle when the warmup percentage was hit.
system.l2.tags.occ_blocks::.writebacks      50.610743                       # Average occupied blocks per requestor
system.l2.tags.occ_blocks::.cpu.inst        31.807954                       # Average occupied blocks per requestor
system.l2.tags.occ_blocks::.cpu.data      7921.897896                       # Average occupied blocks per requestor
system.l2.tags.occ_percent::.writebacks      0.006178                       # Average percentage of cache occupancy
system.l2.tags.occ_percent::.cpu.inst        0.003883                       # Average percentage of cache occupancy
system.l2.tags.occ_percent::.cpu.data        0.967029                       # Average percentage of cache occupancy
system.l2.tags.occ_percent::total            0.977089                       # Average percentage of cache occupancy
system.l2.tags.occ_task_id_blocks::1024          8192                       # Occupied blocks per task id
system.l2.tags.age_task_id_blocks_1024::0            2                       # Occupied blocks per task id
system.l2.tags.age_task_id_blocks_1024::1           17                       # Occupied blocks per task id
system.l2.tags.age_task_id_blocks_1024::2          233                       # Occupied blocks per task id
system.l2.tags.age_task_id_blocks_1024::3         2411                       # Occupied blocks per task id
system.l2.tags.age_task_id_blocks_1024::4         5529                       # Occupied blocks per task id
system.l2.tags.occ_task_id_percent::1024            1                       # Percentage of cache occupancy per task id
system.l2.tags.tag_accesses                   1492608                       # Number of tag accesses
system.l2.tags.data_accesses                  1492608                       # Number of data accesses
system.l2.tags.power_state.pwrStateResidencyTicks::UNDEFINED 119799989000                       # Cumulative time (in ticks) in various power states
system.mem_ctrls.avgPriority_.writebacks::samples     37640.00                       # Average QoS priority value for accepted requests
system.mem_ctrls.avgPriority_.cpu.inst::samples       524.00                       # Average QoS priority value for accepted requests
system.mem_ctrls.avgPriority_.cpu.data::samples     45996.00                       # Average QoS priority value for accepted requests
system.mem_ctrls.priorityMinLatency      0.000000018750                       # per QoS priority minimum request to response latency (s)
system.mem_ctrls.priorityMaxLatency      0.005453236500                       # per QoS priority maximum request to response latency (s)
system.mem_ctrls.numReadWriteTurnArounds         2106                       # Number of turnarounds from READ to WRITE
system.mem_ctrls.numWriteReadTurnArounds         2106                       # Number of turnarounds from WRITE to READ
system.mem_ctrls.numStayReadState              160863                       # Number of times bus staying in READ state
system.mem_ctrls.numStayWriteState              35571                       # Number of times bus staying in WRITE state
system.mem_ctrls.readReqs                       46542                       # Number of read requests accepted
system.mem_ctrls.writeReqs                      37640                       # Number of write requests accepted
system.mem_ctrls.readBursts                     46542                       # Number of controller read bursts, including those serviced by the write queue
system.mem_ctrls.writeBursts                    37640                       # Number of controller write bursts, including those merged in the write queue
system.mem_ctrls.servicedByWrQ                     22                       # Number of controller read bursts serviced by the write queue
system.mem_ctrls.mergedWrBursts                     0                       # Number of controller write bursts merged with an existing one
system.mem_ctrls.neitherReadNorWriteReqs            0                       # Number of requests that are neither read nor write
system.mem_ctrls.avgRdQLen                       1.05                       # Average read queue length when enqueuing
system.mem_ctrls.avgWrQLen                      23.66                       # Average write queue length when enqueuing
system.mem_ctrls.numRdRetry                         0                       # Number of times read queue was full causing retry
system.mem_ctrls.numWrRetry                         0                       # Number of times write queue was full causing retry
system.mem_ctrls.readPktSize::0                     0                       # Read request sizes (log2)
system.mem_ctrls.readPktSize::1                     0                       # Read request sizes (log2)
system.mem_ctrls.readPktSize::2                     0                       # Read request sizes (log2)
system.mem_ctrls.readPktSize::3                     0                       # Read request sizes (log2)
system.mem_ctrls.readPktSize::4                     0                       # Read request sizes (log2)
system.mem_ctrls.readPktSize::5                     0                       # Read request sizes (log2)
system.mem_ctrls.readPktSize::6                 46542                       # Read request sizes (log2)
system.mem_ctrls.writePktSize::0                    0                       # Write request sizes (log2)
system.mem_ctrls.writePktSize::1                    0                       # Write request sizes (log2)
system.mem_ctrls.writePktSize::2                    0                       # Write request sizes (log2)
system.mem_ctrls.writePktSize::3                    0                       # Write request sizes (log2)
system.mem_ctrls.writePktSize::4                    0                       # Write request sizes (log2)
system.mem_ctrls.writePktSize::5                    0                       # Write request sizes (log2)
system.mem_ctrls.writePktSize::6                37640                       # Write request sizes (log2)
system.mem_ctrls.rdQLenPdf::0                   44708                       # What read queue length does an incoming req see
system.mem_ctrls.rdQLenPdf::1                    1806                       # What read queue length does an incoming req see
system.mem_ctrls.rdQLenPdf::2                       6                       # What read queue length does an incoming req see
system.mem_ctrls.rdQLenPdf::3                       0                       # What read queue length does an incoming req see
system.mem_ctrls.rdQLenPdf::4                       0                       # What read queue length does an incoming req see
system.mem_ctrls.rdQLenPdf::5                       0                       # What read queue length does an incoming req see
system.mem_ctrls.rdQLenPdf::6                       0                       # What read queue length does an incoming req see
[...]
system.mem_ctrls.dram.bw_write::.writebacks     20108182                       # Write bandwidth from this memory (bytes/s)
system.mem_ctrls.dram.bw_write::total        20108182                       # Write bandwidth from this memory (bytes/s)
system.mem_ctrls.dram.bw_total::.writebacks     20108182                       # Total bandwidth to/from this memory (bytes/s)
system.mem_ctrls.dram.bw_total::.cpu.inst       279933                       # Total bandwidth to/from this memory (bytes/s)
system.mem_ctrls.dram.bw_total::.cpu.data     24583909                       # Total bandwidth to/from this memory (bytes/s)
system.mem_ctrls.dram.bw_total::total        44972024                       # Total bandwidth to/from this memory (bytes/s)
system.mem_ctrls.dram.readBursts                46520                       # Number of DRAM read bursts
system.mem_ctrls.dram.writeBursts               37617                       # Number of DRAM write bursts
system.mem_ctrls.dram.perBankRdBursts::0         2915                       # Per bank write bursts
system.mem_ctrls.dram.perBankRdBursts::1         2849                       # Per bank write bursts
system.mem_ctrls.dram.perBankRdBursts::2         2861                       # Per bank write bursts
system.mem_ctrls.dram.perBankRdBursts::3         2918                       # Per bank write bursts
system.mem_ctrls.dram.perBankRdBursts::4         2930                       # Per bank write bursts
system.mem_ctrls.dram.perBankRdBursts::5         2949                       # Per bank write bursts
system.mem_ctrls.dram.perBankRdBursts::6         2797                       # Per bank write bursts
system.mem_ctrls.dram.perBankRdBursts::7         2910                       # Per bank write bursts
system.mem_ctrls.dram.perBankRdBursts::8         2997                       # Per bank write bursts
system.mem_ctrls.dram.perBankRdBursts::9         2885                       # Per bank write bursts
system.mem_ctrls.dram.perBankRdBursts::10         2911                       # Per bank write bursts
system.mem_ctrls.dram.perBankRdBursts::11         2978                       # Per bank write bursts
system.mem_ctrls.dram.perBankRdBursts::12         2865                       # Per bank write bursts
system.mem_ctrls.dram.perBankRdBursts::13         2929                       # Per bank write bursts
system.mem_ctrls.dram.perBankRdBursts::14         2876                       # Per bank write bursts
system.mem_ctrls.dram.perBankRdBursts::15         2950                       # Per bank write bursts
system.mem_ctrls.dram.perBankWrBursts::0         2362                       # Per bank write bursts
system.mem_ctrls.dram.perBankWrBursts::1         2300                       # Per bank write bursts
system.mem_ctrls.dram.perBankWrBursts::2         2339                       # Per bank write bursts
system.mem_ctrls.dram.perBankWrBursts::3         2323                       # Per bank write bursts
system.mem_ctrls.dram.perBankWrBursts::4         2320                       # Per bank write bursts
system.mem_ctrls.dram.perBankWrBursts::5         2382                       # Per bank write bursts
system.mem_ctrls.dram.perBankWrBursts::6         2288                       # Per bank write bursts
system.mem_ctrls.dram.perBankWrBursts::7         2373                       # Per bank write bursts
system.mem_ctrls.dram.perBankWrBursts::8         2455                       # Per bank write bursts
system.mem_ctrls.dram.perBankWrBursts::9         2321                       # Per bank write bursts
system.mem_ctrls.dram.perBankWrBursts::10         2361                       # Per bank write bursts
system.mem_ctrls.dram.perBankWrBursts::11         2399                       # Per bank write bursts
system.mem_ctrls.dram.perBankWrBursts::12         2301                       # Per bank write bursts
system.mem_ctrls.dram.perBankWrBursts::13         2396                       # Per bank write bursts
system.mem_ctrls.dram.perBankWrBursts::14         2306                       # Per bank write bursts
system.mem_ctrls.dram.perBankWrBursts::15         2391                       # Per bank write bursts
system.mem_ctrls.dram.totQLat               640855250                       # Total ticks spent queuing
system.mem_ctrls.dram.totBusLat             232600000                       # Total ticks spent in databus transfers
system.mem_ctrls.dram.totMemAccLat         1513105250                       # Total ticks spent from burst creation until serviced by the DRAM
system.mem_ctrls.dram.avgQLat                13775.91                       # Average queueing delay per DRAM burst
system.mem_ctrls.dram.avgBusLat               5000.00                       # Average bus latency per DRAM burst
system.mem_ctrls.dram.avgMemAccLat           32525.91                       # Average memory access latency per DRAM burst
system.mem_ctrls.dram.readRowHits               20357                       # Number of row buffer hits during reads
system.mem_ctrls.dram.writeRowHits              27278                       # Number of row buffer hits during writes
system.mem_ctrls.dram.readRowHitRate            43.76                       # Row buffer hit rate for reads
system.mem_ctrls.dram.writeRowHitRate           72.52                       # Row buffer hit rate for writes
system.mem_ctrls.dram.bytesPerActivate::samples        36502                       # Bytes accessed per row activation
system.mem_ctrls.dram.bytesPerActivate::mean   147.519807                       # Bytes accessed per row activation
system.mem_ctrls.dram.bytesPerActivate::gmean   103.204020                       # Bytes accessed per row activation
system.mem_ctrls.dram.bytesPerActivate::stdev   180.666718                       # Bytes accessed per row activation
system.mem_ctrls.dram.bytesPerActivate::0-127        21973     60.20%     60.20% # Bytes accessed per row activation
system.mem_ctrls.dram.bytesPerActivate::128-255         9138     25.03%     85.23% # Bytes accessed per row activation
system.mem_ctrls.dram.bytesPerActivate::256-383         2059      5.64%     90.87% # Bytes accessed per row activation
system.mem_ctrls.dram.bytesPerActivate::384-511         1271      3.48%     94.35% # Bytes accessed per row activation
system.mem_ctrls.dram.bytesPerActivate::512-639          626      1.71%     96.07% # Bytes accessed per row activation
system.mem_ctrls.dram.bytesPerActivate::640-767          300      0.82%     96.89% # Bytes accessed per row activation
system.mem_ctrls.dram.bytesPerActivate::768-895          307      0.84%     97.73% # Bytes accessed per row activation
system.mem_ctrls.dram.bytesPerActivate::896-1023          244      0.67%     98.40% # Bytes accessed per row activation
system.mem_ctrls.dram.bytesPerActivate::1024-1151          584      1.60%    100.00% # Bytes accessed per row activation
system.mem_ctrls.dram.bytesPerActivate::total        36502                       # Bytes accessed per row activation
system.mem_ctrls.dram.bytesRead               2977280                       # Total number of bytes read from DRAM
system.mem_ctrls.dram.bytesWritten            2407488                       # Total number of bytes written to DRAM
system.mem_ctrls.dram.avgRdBW               24.852089                       # Average DRAM read bandwidth in MiBytes/s
system.mem_ctrls.dram.avgWrBW               20.095895                       # Average DRAM write bandwidth in MiBytes/s
system.mem_ctrls.dram.peakBW                 12800.00                       # Theoretical peak bandwidth in MiByte/s
system.mem_ctrls.dram.busUtil                    0.35                       # Data bus utilization in percentage
system.mem_ctrls.dram.busUtilRead                0.19                       # Data bus utilization in percentage for reads
system.mem_ctrls.dram.busUtilWrite               0.16                       # Data bus utilization in percentage for writes
system.mem_ctrls.dram.pageHitRate               56.62                       # Row buffer hit rate, read and write combined
system.mem_ctrls.dram.power_state.pwrStateResidencyTicks::UNDEFINED 119799989000                       # Cumulative time (in ticks) in various power states
system.mem_ctrls.dram.rank0.actEnergy       130897620                       # Energy for activate commands per rank (pJ)
system.mem_ctrls.dram.rank0.preEnergy        69573735                       # Energy for precharge commands per rank (pJ)
system.mem_ctrls.dram.rank0.readEnergy      165141060                       # Energy for read commands per rank (pJ)
system.mem_ctrls.dram.rank0.writeEnergy      97546140                       # Energy for write commands per rank (pJ)
system.mem_ctrls.dram.rank0.refreshEnergy 9456851040.000002                       # Energy for refresh commands per rank (pJ)
system.mem_ctrls.dram.rank0.actBackEnergy  24357257100                       # Energy for active background per rank (pJ)
system.mem_ctrls.dram.rank0.preBackEnergy  25491821760                       # Energy for precharge background per rank (pJ)
system.mem_ctrls.dram.rank0.actPowerDownEnergy            0                       # Energy for active power-down per rank (pJ)
system.mem_ctrls.dram.rank0.prePowerDownEnergy            0                       # Energy for precharge power-down per rank (pJ)
system.mem_ctrls.dram.rank0.selfRefreshEnergy            0                       # Energy for self refresh per rank (pJ)
system.mem_ctrls.dram.rank0.totalEnergy   59769088455                       # Total energy per rank (pJ)
system.mem_ctrls.dram.rank0.averagePower   498.907295                       # Core power per rank (mW)
system.mem_ctrls.dram.rank0.totalIdleTime            0                       # Total Idle time Per DRAM Rank
system.mem_ctrls.dram.rank0.pwrStateTime::IDLE  66028249500                       # Time in different power states
system.mem_ctrls.dram.rank0.pwrStateTime::REF   4000360000                       # Time in different power states
system.mem_ctrls.dram.rank0.pwrStateTime::SREF            0                       # Time in different power states
system.mem_ctrls.dram.rank0.pwrStateTime::PRE_PDN            0                       # Time in different power states
system.mem_ctrls.dram.rank0.pwrStateTime::ACT  49771379500                       # Time in different power states
system.mem_ctrls.dram.rank0.pwrStateTime::ACT_PDN            0                       # Time in different power states
system.mem_ctrls.dram.rank1.actEnergy       129726660                       # Energy for activate commands per rank (pJ)
system.mem_ctrls.dram.rank1.preEnergy        68951355                       # Energy for precharge commands per rank (pJ)
system.mem_ctrls.dram.rank1.readEnergy      167011740                       # Energy for read commands per rank (pJ)
system.mem_ctrls.dram.rank1.writeEnergy      98814600                       # Energy for write commands per rank (pJ)
system.mem_ctrls.dram.rank1.refreshEnergy 9456851040.000002                       # Energy for refresh commands per rank (pJ)
system.mem_ctrls.dram.rank1.actBackEnergy  24701780490                       # Energy for active background per rank (pJ)
system.mem_ctrls.dram.rank1.preBackEnergy  25201696800                       # Energy for precharge background per rank (pJ)
system.mem_ctrls.dram.rank1.actPowerDownEnergy            0                       # Energy for active power-down per rank (pJ)
system.mem_ctrls.dram.rank1.prePowerDownEnergy            0                       # Energy for precharge power-down per rank (pJ)
system.mem_ctrls.dram.rank1.selfRefreshEnergy            0                       # Energy for self refresh per rank (pJ)
system.mem_ctrls.dram.rank1.totalEnergy   59824832685                       # Total energy per rank (pJ)
system.mem_ctrls.dram.rank1.averagePower   499.372606                       # Core power per rank (mW)
system.mem_ctrls.dram.rank1.totalIdleTime            0                       # Total Idle time Per DRAM Rank
system.mem_ctrls.dram.rank1.pwrStateTime::IDLE  65267460500                       # Time in different power states
system.mem_ctrls.dram.rank1.pwrStateTime::REF   4000360000                       # Time in different power states
system.mem_ctrls.dram.rank1.pwrStateTime::SREF            0                       # Time in different power states
system.mem_ctrls.dram.rank1.pwrStateTime::PRE_PDN            0                       # Time in different power states
system.mem_ctrls.dram.rank1.pwrStateTime::ACT  50532168500                       # Time in different power states
system.mem_ctrls.dram.rank1.pwrStateTime::ACT_PDN            0                       # Time in different power states
system.mem_ctrls.power_state.pwrStateResidencyTicks::UNDEFINED 119799989000                       # Cumulative time (in ticks) in various power states
system.membus.trans_dist::ReadResp               7750                       # Transaction distribution
system.membus.trans_dist::WritebackDirty        37640                       # Transaction distribution
system.membus.trans_dist::CleanEvict              269                       # Transaction distribution
system.membus.trans_dist::ReadExReq             38792                       # Transaction distribution
system.membus.trans_dist::ReadExResp            38792                       # Transaction distribution
system.membus.trans_dist::ReadSharedReq          7750                       # Transaction distribution
system.membus.pkt_count_system.l2.mem_side_port::system.mem_ctrls.port       130993                       # Packet count per connected requestor and responder (bytes)
system.membus.pkt_count::total                 130993                       # Packet count per connected requestor and responder (bytes)
system.membus.pkt_size_system.l2.mem_side_port::system.mem_ctrls.port      5387648                       # Cumulative packet size per connected requestor and responder (bytes)
system.membus.pkt_size::total                 5387648                       # Cumulative packet size per connected requestor and responder (bytes)
system.membus.snoops                                0                       # Total snoops (count)
system.membus.snoopTraffic                          0                       # Total snoop traffic (bytes)
system.membus.snoop_fanout::samples             46542                       # Request fanout histogram
system.membus.snoop_fanout::mean                    0                       # Request fanout histogram
system.membus.snoop_fanout::stdev                   0                       # Request fanout histogram
system.membus.snoop_fanout::underflows              0      0.00%      0.00% # Request fanout histogram
system.membus.snoop_fanout::0                   46542    100.00%    100.00% # Request fanout histogram
system.membus.snoop_fanout::1                       0      0.00%    100.00% # Request fanout histogram
system.membus.snoop_fanout::overflows               0      0.00%    100.00% # Request fanout histogram
system.membus.snoop_fanout::min_value               0                       # Request fanout histogram
system.membus.snoop_fanout::max_value               0                       # Request fanout histogram
system.membus.snoop_fanout::total               46542                       # Request fanout histogram
system.membus.power_state.pwrStateResidencyTicks::UNDEFINED 119799989000                       # Cumulative time (in ticks) in various power states
system.membus.reqLayer0.occupancy           235011000                       # Layer occupancy (ticks)
system.membus.reqLayer0.utilization               0.2                       # Layer utilization (%)
system.membus.respLayer1.occupancy          251028000                       # Layer occupancy (ticks)
system.membus.respLayer1.utilization              0.2                       # Layer utilization (%)
system.tol2bus.trans_dist::ReadResp            319542                       # Transaction distribution
system.tol2bus.trans_dist::WritebackDirty       115529                       # Transaction distribution
system.tol2bus.trans_dist::WritebackClean       255593                       # Transaction distribution
system.tol2bus.trans_dist::CleanEvict           28718                       # Transaction distribution
system.tol2bus.trans_dist::ReadExReq            43026                       # Transaction distribution
system.tol2bus.trans_dist::ReadExResp           43026                       # Transaction distribution
system.tol2bus.trans_dist::ReadCleanReq        256039                       # Transaction distribution
system.tol2bus.trans_dist::ReadSharedReq        63503                       # Transaction distribution
system.tol2bus.pkt_count_system.cpu.icache.mem_side_port::system.l2.cpu_side_port       767671                       # Packet count per connected requestor and responder (bytes)
system.tol2bus.pkt_count_system.cpu.dcache.mem_side_port::system.l2.cpu_side_port       318563                       # Packet count per connected requestor and responder (bytes)
system.tol2bus.pkt_count::total               1086234                       # Packet count per connected requestor and responder (bytes)
system.tol2bus.pkt_size_system.cpu.icache.mem_side_port::system.l2.cpu_side_port     32744448                       # Cumulative packet size per connected requestor and responder (bytes)
system.tol2bus.pkt_size_system.cpu.dcache.mem_side_port::system.l2.cpu_side_port     11802752                       # Cumulative packet size per connected requestor and responder (bytes)
system.tol2bus.pkt_size::total               44547200                       # Cumulative packet size per connected requestor and responder (bytes)
system.tol2bus.snoops                           38742                       # Total snoops (count)
system.tol2bus.snoopTraffic                   2408960                       # Total snoop traffic (bytes)
system.tol2bus.snoop_fanout::samples           401310                       # Request fanout histogram
system.tol2bus.snoop_fanout::mean            0.004413                       # Request fanout histogram
system.tol2bus.snoop_fanout::stdev           0.066509                       # Request fanout histogram
system.tol2bus.snoop_fanout::underflows             0      0.00%      0.00% # Request fanout histogram
system.tol2bus.snoop_fanout::0                 399545     99.56%     99.56% # Request fanout histogram
system.tol2bus.snoop_fanout::1                   1759      0.44%    100.00% # Request fanout histogram
system.tol2bus.snoop_fanout::2                      6      0.00%    100.00% # Request fanout histogram
system.tol2bus.snoop_fanout::overflows              0      0.00%    100.00% # Request fanout histogram
system.tol2bus.snoop_fanout::min_value              0                       # Request fanout histogram
system.tol2bus.snoop_fanout::max_value              2                       # Request fanout histogram
system.tol2bus.snoop_fanout::total             401310                       # Request fanout histogram
system.tol2bus.power_state.pwrStateResidencyTicks::UNDEFINED 119799989000                       # Cumulative time (in ticks) in various power states
system.tol2bus.reqLayer0.occupancy         1390630000                       # Layer occupancy (ticks)
system.tol2bus.reqLayer0.utilization              1.2                       # Layer utilization (%)
system.tol2bus.respLayer0.occupancy         768117000                       # Layer occupancy (ticks)
system.tol2bus.respLayer0.utilization             0.6                       # Layer utilization (%)
system.tol2bus.respLayer1.occupancy         319591995                       # Layer occupancy (ticks)
system.tol2bus.respLayer1.utilization             0.3                       # Layer utilization (%)
system.voltage_domain.voltage                       1                       # Voltage in Volts

---------- End Simulation Statistics   ----------
