
---------- Begin Simulation Statistics ----------
final_tick                               111979029000                       # Number of ticks from beginning of simulation (restored from checkpoints and never reset)
host_inst_rate                                 417212                       # Simulator instruction rate (inst/s)
host_mem_usage                                 663808                       # Number of bytes of host memory used
host_op_rate                                   456526                       # Simulator op (including micro ops) rate (op/s)
host_seconds                                   239.69                       # Real time elapsed on the host
host_tick_rate                              467189664                       # Simulator tick rate (ticks/s)
sim_freq                                 1000000000000                       # Frequency of simulated ticks
sim_insts                                   100000000                       # Number of instructions simulated
sim_ops                                     109423148                       # Number of ops (including micro ops) simulated
sim_seconds                                  0.111979                       # Number of seconds simulated
sim_ticks                                111979029000                       # Number of ticks simulated
system.cpu.committedInsts                   100000000                       # Number of instructions committed
system.cpu.committedOps                     109423148                       # Number of ops (including micro ops) committed
system.cpu.cpi                               1.119790                       # CPI: cycles per instruction
system.cpu.discardedOps                        459921                       # Number of ops (including micro ops) which were discarded before commit
system.cpu.idleCycles                         3185040                       # Total number of cycles that the object has spent stopped
system.cpu.ipc                               0.893024                       # IPC: instructions per cycle
system.cpu.numCycles                        111979029                       # number of cpu cycles simulated
system.cpu.numFetchSuspends                         0                       # Number of times Execute suspended instruction fetching
system.cpu.numWorkItemsCompleted                    0                       # number of work items this cpu completed
system.cpu.numWorkItemsStarted                      0                       # number of work items this cpu started
system.cpu.op_class_0::No_OpClass                   0      0.00%      0.00% # Class of committed instruction
system.cpu.op_class_0::IntAlu                72978378     66.69%     66.69% # Class of committed instruction
system.cpu.op_class_0::IntMult                 567877      0.52%     67.21% # Class of committed instruction
system.cpu.op_class_0::IntDiv                       0      0.00%     67.21% # Class of committed instruction
system.cpu.op_class_0::FloatAdd                     0      0.00%     67.21% # Class of committed instruction
system.cpu.op_class_0::FloatCmp                     0      0.00%     67.21% # Class of committed instruction
system.cpu.op_class_0::FloatCvt                     0      0.00%     67.21% # Class of committed instruction
system.cpu.op_class_0::FloatMult                    0      0.00%     67.21% # Class of committed instruction
system.cpu.op_class_0::FloatMultAcc                 0      0.00%     67.21% # Class of committed instruction
system.cpu.op_class_0::FloatDiv                     0      0.00%     67.21% # Class of committed instruction
system.cpu.op_class_0::FloatMisc                    0      0.00%     67.21% # Class of committed instruction
system.cpu.op_class_0::FloatSqrt                    0      0.00%     67.21% # Class of committed instruction
system.cpu.op_class_0::SimdAdd                 241132      0.22%     67.43% # Class of committed instruction
system.cpu.op_class_0::SimdAddAcc                   0      0.00%     67.43% # Class of committed instruction
system.cpu.op_class_0::SimdAlu                 154494      0.14%     67.57% # Class of committed instruction
system.cpu.op_class_0::SimdCmp                 120566      0.11%     67.68% # Class of committed instruction
system.cpu.op_class_0::SimdCvt                      0      0.00%     67.68% # Class of committed instruction
system.cpu.op_class_0::SimdMisc                 44506      0.04%     67.73% # Class of committed instruction
system.cpu.op_class_0::SimdMult                     0      0.00%     67.73% # Class of committed instruction
system.cpu.op_class_0::SimdMultAcc                  0      0.00%     67.73% # Class of committed instruction
system.cpu.op_class_0::SimdShift                    0      0.00%     67.73% # Class of committed instruction
system.cpu.op_class_0::SimdShiftAcc                 0      0.00%     67.73% # Class of committed instruction
system.cpu.op_class_0::SimdDiv                      0      0.00%     67.73% # Class of committed instruction
system.cpu.op_class_0::SimdSqrt                     0      0.00%     67.73% # Class of committed instruction
system.cpu.op_class_0::SimdFloatAdd                 0      0.00%     67.73% # Class of committed instruction
system.cpu.op_class_0::SimdFloatAlu                 0      0.00%     67.73% # Class of committed instruction
system.cpu.op_class_0::SimdFloatCmp                 0      0.00%     67.73% # Class of committed instruction
system.cpu.op_class_0::SimdFloatCvt                 0      0.00%     67.73% # Class of committed instruction
system.cpu.op_class_0::SimdFloatDiv                 0      0.00%     67.73% # Class of committed instruction
system.cpu.op_class_0::SimdFloatMisc           166276      0.15%     67.88% # Class of committed instruction
system.cpu.op_class_0::SimdFloatMult                0      0.00%     67.88% # Class of committed instruction
system.cpu.op_class_0::SimdFloatMultAcc             0      0.00%     67.88% # Class of committed instruction
system.cpu.op_class_0::SimdFloatSqrt                0      0.00%     67.88% # Class of committed instruction
system.cpu.op_class_0::SimdReduceAdd                0      0.00%     67.88% # Class of committed instruction
system.cpu.op_class_0::SimdReduceAlu                0      0.00%     67.88% # Class of committed instruction
system.cpu.op_class_0::SimdReduceCmp                0      0.00%     67.88% # Class of committed instruction
system.cpu.op_class_0::SimdFloatReduceAdd            0      0.00%     67.88% # Class of committed instruction
system.cpu.op_class_0::SimdFloatReduceCmp            0      0.00%     67.88% # Class of committed instruction
system.cpu.op_class_0::SimdAes                      0      0.00%     67.88% # Class of committed instruction
system.cpu.op_class_0::SimdAesMix                   0      0.00%     67.88% # Class of committed instruction
system.cpu.op_class_0::SimdSha1Hash                 0      0.00%     67.88% # Class of committed instruction
system.cpu.op_class_0::SimdSha1Hash2                0      0.00%     67.88% # Class of committed instruction
system.cpu.op_class_0::SimdSha256Hash               0      0.00%     67.88% # Class of committed instruction
system.cpu.op_class_0::SimdSha256Hash2              0      0.00%     67.88% # Class of committed instruction
system.cpu.op_class_0::SimdShaSigma2                0      0.00%     67.88% # Class of committed instruction
system.cpu.op_class_0::SimdShaSigma3                0      0.00%     67.88% # Class of committed instruction
system.cpu.op_class_0::SimdPredAlu                  0      0.00%     67.88% # Class of committed instruction
system.cpu.op_class_0::MemRead               20628136     18.85%     86.73% # Class of committed instruction
system.cpu.op_class_0::MemWrite              14521783     13.27%    100.00% # Class of committed instruction
system.cpu.op_class_0::FloatMemRead                 0      0.00%    100.00% # Class of committed instruction
system.cpu.op_class_0::FloatMemWrite                0      0.00%    100.00% # Class of committed instruction
system.cpu.op_class_0::IprAccess                    0      0.00%    100.00% # Class of committed instruction
system.cpu.op_class_0::InstPrefetch                 0      0.00%    100.00% # Class of committed instruction
system.cpu.op_class_0::total                109423148                       # Class of committed instruction
system.cpu.tickCycles                       108793989                       # Number of cycles that the object actually ticked
system.cpu.workload.numSyscalls                    87                       # Number of system calls
system.membus.snoop_filter.hit_multi_requests            0                       # Number of requests hitting in the snoop filter with multiple (>1) holders of the requested data.
system.membus.snoop_filter.hit_multi_snoops            0                       # Number of snoops hitting in the snoop filter with multiple (>1) holders of the requested data.
system.membus.snoop_filter.hit_single_requests        26361                       # Number of requests hitting in the snoop filter with a single holder of the requested data.
system.membus.snoop_filter.hit_single_snoops            0                       # Number of snoops hitting in the snoop filter with a single holder of the requested data.
system.membus.snoop_filter.tot_requests         69674                       # Total number of requests made to the snoop filter.
system.membus.snoop_filter.tot_snoops               0                       # Total number of snoops made to the snoop filter.
system.tol2bus.snoop_filter.hit_multi_requests           18                       # Number of requests hitting in the snoop filter with multiple (>1) holders of the requested data.
system.tol2bus.snoop_filter.hit_multi_snoops            5                       # Number of snoops hitting in the snoop filter with multiple (>1) holders of the requested data.
system.tol2bus.snoop_filter.hit_single_requests        48706                       # Number of requests hitting in the snoop filter with a single holder of the requested data.
system.tol2bus.snoop_filter.hit_single_snoops          923                       # Number of snoops hitting in the snoop filter with a single holder of the requested data.
system.tol2bus.snoop_filter.tot_requests        99970                       # Total number of requests made to the snoop filter.
system.tol2bus.snoop_filter.tot_snoops            928                       # Total number of snoops made to the snoop filter.
system.clk_domain.clock                          1000                       # Clock period in ticks
system.cpu.branchPred.lookups                20399389                       # Number of BP lookups
system.cpu.branchPred.condPredicted          16340646                       # Number of conditional branches predicted
system.cpu.branchPred.condIncorrect             80925                       # Number of conditional branches incorrect
system.cpu.branchPred.BTBLookups              8732001                       # Number of BTB lookups
system.cpu.branchPred.BTBHits                 8730661                       # Number of BTB hits
system.cpu.branchPred.BTBHitPct             99.984654                       # BTB Hit Percentage
system.cpu.branchPred.RASUsed                 1049778                       # Number of times the RAS was used to get a target.
system.cpu.branchPred.RASIncorrect                325                       # Number of incorrect RAS predictions.
system.cpu.branchPred.indirectLookups          433617                       # Number of indirect predictor lookups.
system.cpu.branchPred.indirectHits             299767                       # Number of indirect target hits.
system.cpu.branchPred.indirectMisses           133850                       # Number of indirect misses.
system.cpu.branchPred.indirectMispredicted         1037                       # Number of mispredicted indirect branches.
system.cpu.dcache.demand_hits::.cpu.data     35585781                       # number of demand (read+write) hits
system.cpu.dcache.demand_hits::total         35585781                       # number of demand (read+write) hits
system.cpu.dcache.overall_hits::.cpu.data     35589096                       # number of overall hits
system.cpu.dcache.overall_hits::total        35589096                       # number of overall hits
system.cpu.dcache.demand_misses::.cpu.data        68741                       # number of demand (read+write) misses
system.cpu.dcache.demand_misses::total          68741                       # number of demand (read+write) misses
system.cpu.dcache.overall_misses::.cpu.data        68769                       # number of overall misses
system.cpu.dcache.overall_misses::total         68769                       # number of overall misses
system.cpu.dcache.demand_miss_latency::.cpu.data   6019622000                       # number of demand (read+write) miss cycles
system.cpu.dcache.demand_miss_latency::total   6019622000                       # number of demand (read+write) miss cycles
system.cpu.dcache.overall_miss_latency::.cpu.data   6019622000                       # number of overall miss cycles
system.cpu.dcache.overall_miss_latency::total   6019622000                       # number of overall miss cycles
system.cpu.dcache.demand_accesses::.cpu.data     35654522                       # number of demand (read+write) accesses
system.cpu.dcache.demand_accesses::total     35654522                       # number of demand (read+write) accesses
system.cpu.dcache.overall_accesses::.cpu.data     35657865                       # number of overall (read+write) accesses
system.cpu.dcache.overall_accesses::total     35657865                       # number of overall (read+write) accesses
system.cpu.dcache.demand_miss_rate::.cpu.data     0.001928                       # miss rate for demand accesses
system.cpu.dcache.demand_miss_rate::total     0.001928                       # miss rate for demand accesses
system.cpu.dcache.overall_miss_rate::.cpu.data     0.001929                       # miss rate for overall accesses
system.cpu.dcache.overall_miss_rate::total     0.001929                       # miss rate for overall accesses
system.cpu.dcache.demand_avg_miss_latency::.cpu.data 87569.601839                       # average overall miss latency
system.cpu.dcache.demand_avg_miss_latency::total 87569.601839                       # average overall miss latency
system.cpu.dcache.overall_avg_miss_latency::.cpu.data 87533.946982                       # average overall miss latency
system.cpu.dcache.overall_avg_miss_latency::total 87533.946982                       # average overall miss latency
system.cpu.dcache.blocked_cycles::no_mshrs            0                       # number of cycles access was blocked
system.cpu.dcache.blocked_cycles::no_targets            0                       # number of cycles access was blocked
system.cpu.dcache.blocked::no_mshrs                 0                       # number of cycles access was blocked
system.cpu.dcache.blocked::no_targets               0                       # number of cycles access was blocked
system.cpu.dcache.avg_blocked_cycles::no_mshrs          nan                       # average number of cycles each access was blocked
system.cpu.dcache.avg_blocked_cycles::no_targets          nan                       # average number of cycles each access was blocked
system.cpu.dcache.writebacks::.writebacks        47141                       # number of writebacks
system.cpu.dcache.writebacks::total             47141                       # number of writebacks
system.cpu.dcache.demand_mshr_hits::.cpu.data        18021                       # number of demand (read+write) MSHR hits
system.cpu.dcache.demand_mshr_hits::total        18021                       # number of demand (read+write) MSHR hits
system.cpu.dcache.overall_mshr_hits::.cpu.data        18021                       # number of overall MSHR hits
system.cpu.dcache.overall_mshr_hits::total        18021                       # number of overall MSHR hits
system.cpu.dcache.demand_mshr_misses::.cpu.data        50720                       # number of demand (read+write) MSHR misses
system.cpu.dcache.demand_mshr_misses::total        50720                       # number of demand (read+write) MSHR misses
system.cpu.dcache.overall_mshr_misses::.cpu.data        50744                       # number of overall MSHR misses
system.cpu.dcache.overall_mshr_misses::total        50744                       # number of overall MSHR misses
system.cpu.dcache.demand_mshr_miss_latency::.cpu.data   4705262000                       # number of demand (read+write) MSHR miss cycles
system.cpu.dcache.demand_mshr_miss_latency::total   4705262000                       # number of demand (read+write) MSHR miss cycles
system.cpu.dcache.overall_mshr_miss_latency::.cpu.data   4707237000                       # number of overall MSHR miss cycles
system.cpu.dcache.overall_mshr_miss_latency::total   4707237000                       # number of overall MSHR miss cycles
system.cpu.dcache.demand_mshr_miss_rate::.cpu.data     0.001423                       # mshr miss rate for demand accesses
system.cpu.dcache.demand_mshr_miss_rate::total     0.001423                       # mshr miss rate for demand accesses
system.cpu.dcache.overall_mshr_miss_rate::.cpu.data     0.001423                       # mshr miss rate for overall accesses
system.cpu.dcache.overall_mshr_miss_rate::total     0.001423                       # mshr miss rate for overall accesses
system.cpu.dcache.demand_avg_mshr_miss_latency::.cpu.data 92769.361199                       # average overall mshr miss latency
system.cpu.dcache.demand_avg_mshr_miss_latency::total 92769.361199                       # average overall mshr miss latency
system.cpu.dcache.overall_avg_mshr_miss_latency::.cpu.data 92764.405644                       # average overall mshr miss latency
system.cpu.dcache.overall_avg_mshr_miss_latency::total 92764.405644                       # average overall mshr miss latency
system.cpu.dcache.replacements                  48696                       # number of replacements
system.cpu.dcache.ReadReq_hits::.cpu.data     21399143                       # number of ReadReq hits
system.cpu.dcache.ReadReq_hits::total        21399143                       # number of ReadReq hits
system.cpu.dcache.ReadReq_misses::.cpu.data        13410                       # number of ReadReq misses
system.cpu.dcache.ReadReq_misses::total         13410                       # number of ReadReq misses
system.cpu.dcache.ReadReq_miss_latency::.cpu.data    725532000                       # number of ReadReq miss cycles
system.cpu.dcache.ReadReq_miss_latency::total    725532000                       # number of ReadReq miss cycles
system.cpu.dcache.ReadReq_accesses::.cpu.data     21412553                       # number of ReadReq accesses(hits+misses)
system.cpu.dcache.ReadReq_accesses::total     21412553                       # number of ReadReq accesses(hits+misses)
system.cpu.dcache.ReadReq_miss_rate::.cpu.data     0.000626                       # miss rate for ReadReq accesses
system.cpu.dcache.ReadReq_miss_rate::total     0.000626                       # miss rate for ReadReq accesses
system.cpu.dcache.ReadReq_avg_miss_latency::.cpu.data 54103.803132                       # average ReadReq miss latency
system.cpu.dcache.ReadReq_avg_miss_latency::total 54103.803132                       # average ReadReq miss latency
system.cpu.dcache.ReadReq_mshr_hits::.cpu.data         1494                       # number of ReadReq MSHR hits
system.cpu.dcache.ReadReq_mshr_hits::total         1494                       # number of ReadReq MSHR hits
system.cpu.dcache.ReadReq_mshr_misses::.cpu.data        11916                       # number of ReadReq MSHR misses
system.cpu.dcache.ReadReq_mshr_misses::total        11916                       # number of ReadReq MSHR misses
system.cpu.dcache.ReadReq_mshr_miss_latency::.cpu.data    645383000                       # number of ReadReq MSHR miss cycles
system.cpu.dcache.ReadReq_mshr_miss_latency::total    645383000                       # number of ReadReq MSHR miss cycles
system.cpu.dcache.ReadReq_mshr_miss_rate::.cpu.data     0.000556                       # mshr miss rate for ReadReq accesses
system.cpu.dcache.ReadReq_mshr_miss_rate::total     0.000556                       # mshr miss rate for ReadReq accesses
system.cpu.dcache.ReadReq_avg_mshr_miss_latency::.cpu.data 54161.043974                       # average ReadReq mshr miss latency
system.cpu.dcache.ReadReq_avg_mshr_miss_latency::total 54161.043974                       # average ReadReq mshr miss latency
system.cpu.dcache.WriteReq_hits::.cpu.data     14186638                       # number of WriteReq hits
system.cpu.dcache.WriteReq_hits::total       14186638                       # number of WriteReq hits
system.cpu.dcache.WriteReq_misses::.cpu.data        55331                       # number of WriteReq misses
system.cpu.dcache.WriteReq_misses::total        55331                       # number of WriteReq misses
system.cpu.dcache.WriteReq_miss_latency::.cpu.data   5294090000                       # number of WriteReq miss cycles
system.cpu.dcache.WriteReq_miss_latency::total   5294090000                       # number of WriteReq miss cycles
system.cpu.dcache.WriteReq_accesses::.cpu.data     14241969                       # number of WriteReq accesses(hits+misses)
system.cpu.dcache.WriteReq_accesses::total     14241969                       # number of WriteReq accesses(hits+misses)
system.cpu.dcache.WriteReq_miss_rate::.cpu.data     0.003885                       # miss rate for WriteReq accesses
system.cpu.dcache.WriteReq_miss_rate::total     0.003885                       # miss rate for WriteReq accesses
system.cpu.dcache.WriteReq_avg_miss_latency::.cpu.data 95680.360015                       # average WriteReq miss latency
system.cpu.dcache.WriteReq_avg_miss_latency::total 95680.360015                       # average WriteReq miss latency
system.cpu.dcache.WriteReq_mshr_hits::.cpu.data        16527                       # number of WriteReq MSHR hits
system.cpu.dcache.WriteReq_mshr_hits::total        16527                       # number of WriteReq MSHR hits
system.cpu.dcache.WriteReq_mshr_misses::.cpu.data        38804                       # number of WriteReq MSHR misses
system.cpu.dcache.WriteReq_mshr_misses::total        38804                       # number of WriteReq MSHR misses
system.cpu.dcache.WriteReq_mshr_miss_latency::.cpu.data   4059879000                       # number of WriteReq MSHR miss cycles
system.cpu.dcache.WriteReq_mshr_miss_latency::total   4059879000                       # number of WriteReq MSHR miss cycles
system.cpu.dcache.WriteReq_mshr_miss_rate::.cpu.data     0.002725                       # mshr miss rate for WriteReq accesses
system.cpu.dcache.WriteReq_mshr_miss_rate::total     0.002725                       # mshr miss rate for WriteReq accesses
system.cpu.dcache.WriteReq_avg_mshr_miss_latency::.cpu.data 104625.270591                       # average WriteReq mshr miss latency
system.cpu.dcache.WriteReq_avg_mshr_miss_latency::total 104625.270591                       # average WriteReq mshr miss latency
system.cpu.dcache.SoftPFReq_hits::.cpu.data         3315                       # number of SoftPFReq hits
system.cpu.dcache.SoftPFReq_hits::total          3315                       # number of SoftPFReq hits
system.cpu.dcache.SoftPFReq_misses::.cpu.data           28                       # number of SoftPFReq misses
system.cpu.dcache.SoftPFReq_misses::total           28                       # number of SoftPFReq misses
system.cpu.dcache.SoftPFReq_accesses::.cpu.data         3343                       # number of SoftPFReq accesses(hits+misses)
system.cpu.dcache.SoftPFReq_accesses::total         3343                       # number of SoftPFReq accesses(hits+misses)
system.cpu.dcache.SoftPFReq_miss_rate::.cpu.data     0.008376                       # miss rate for SoftPFReq accesses
system.cpu.dcache.SoftPFReq_miss_rate::total     0.008376                       # miss rate for SoftPFReq accesses
system.cpu.dcache.SoftPFReq_mshr_misses::.cpu.data           24                       # number of SoftPFReq MSHR misses
system.cpu.dcache.SoftPFReq_mshr_misses::total           24                       # number of SoftPFReq MSHR misses
system.cpu.dcache.SoftPFReq_mshr_miss_latency::.cpu.data      1975000                       # number of SoftPFReq MSHR miss cycles
system.cpu.dcache.SoftPFReq_mshr_miss_latency::total      1975000                       # number of SoftPFReq MSHR miss cycles
system.cpu.dcache.SoftPFReq_mshr_miss_rate::.cpu.data     0.007179                       # mshr miss rate for SoftPFReq accesses
system.cpu.dcache.SoftPFReq_mshr_miss_rate::total     0.007179                       # mshr miss rate for SoftPFReq accesses
system.cpu.dcache.SoftPFReq_avg_mshr_miss_latency::.cpu.data 82291.666667                       # average SoftPFReq mshr miss latency
system.cpu.dcache.SoftPFReq_avg_mshr_miss_latency::total 82291.666667                       # average SoftPFReq mshr miss latency
system.cpu.dcache.LoadLockedReq_hits::.cpu.data        89006                       # number of LoadLockedReq hits
system.cpu.dcache.LoadLockedReq_hits::total        89006                       # number of LoadLockedReq hits
system.cpu.dcache.LoadLockedReq_accesses::.cpu.data        89006                       # number of LoadLockedReq accesses(hits+misses)
system.cpu.dcache.LoadLockedReq_accesses::total        89006                       # number of LoadLockedReq accesses(hits+misses)
system.cpu.dcache.StoreCondReq_hits::.cpu.data        89006                       # number of StoreCondReq hits
system.cpu.dcache.StoreCondReq_hits::total        89006                       # number of StoreCondReq hits
system.cpu.dcache.StoreCondReq_accesses::.cpu.data        89006                       # number of StoreCondReq accesses(hits+misses)
system.cpu.dcache.StoreCondReq_accesses::total        89006                       # number of StoreCondReq accesses(hits+misses)
system.cpu.dcache.power_state.pwrStateResidencyTicks::UNDEFINED 111979029000                       # Cumulative time (in ticks) in various power states
system.cpu.dcache.tags.tagsinuse          2035.656477                       # Cycle average of tags in use
system.cpu.dcache.tags.total_refs            35817852                       # Total number of references to valid blocks.
system.cpu.dcache.tags.sampled_refs             50744                       # Sample count of references to valid blocks.
system.cpu.dcache.tags.avg_refs            705.853933                       # Average number of references to valid blocks.
system.cpu.dcache.tags.warmup_cycle            223000                       # Cycle when the warmup percentage was hit.
system.cpu.dcache.tags.occ_blocks::.cpu.data  2035.656477                       # Average occupied blocks per requestor
system.cpu.dcache.tags.occ_percent::.cpu.data     0.993973                       # Average percentage of cache occupancy
system.cpu.dcache.tags.occ_percent::total     0.993973                       # Average percentage of cache occupancy
system.cpu.dcache.tags.occ_task_id_blocks::1024         2048                       # Occupied blocks per task id
system.cpu.dcache.tags.age_task_id_blocks_1024::0            2                       # Occupied blocks per task id
system.cpu.dcache.tags.age_task_id_blocks_1024::1           19                       # Occupied blocks per task id
system.cpu.dcache.tags.age_task_id_blocks_1024::2          260                       # Occupied blocks per task id
system.cpu.dcache.tags.age_task_id_blocks_1024::3         1614                       # Occupied blocks per task id
system.cpu.dcache.tags.age_task_id_blocks_1024::4          153                       # Occupied blocks per task id
system.cpu.dcache.tags.occ_task_id_percent::1024            1                       # Percentage of cache occupancy per task id
system.cpu.dcache.tags.tag_accesses          71722498                       # Number of tag accesses
system.cpu.dcache.tags.data_accesses         71722498                       # Number of data accesses
system.cpu.dcache.tags.power_state.pwrStateResidencyTicks::UNDEFINED 111979029000                       # Cumulative time (in ticks) in various power states
system.cpu.dtb.instHits                             0                       # ITB inst hits
system.cpu.dtb.instMisses                           0                       # ITB inst misses
system.cpu.dtb.readHits                             0                       # DTB read hits
system.cpu.dtb.readMisses                           0                       # DTB read misses
system.cpu.dtb.writeHits                            0                       # DTB write hits
system.cpu.dtb.writeMisses                          0                       # DTB write misses
system.cpu.dtb.inserts                              0                       # Number of times an entry is inserted into the TLB
system.cpu.dtb.flushTlb                             0                       # Number of times complete TLB was flushed
system.cpu.dtb.flushTlbMva                          0                       # Number of times TLB was flushed by MVA
system.cpu.dtb.flushTlbMvaAsid                      0                       # Number of times TLB was flushed by MVA & ASID
system.cpu.dtb.flushTlbAsid                         0                       # Number of times TLB was flushed by ASID
system.cpu.dtb.flushedEntries                       0                       # Number of entries that have been flushed from TLB
system.cpu.dtb.alignFaults                          0                       # Number of TLB faults due to alignment restrictions
system.cpu.dtb.prefetchFaults                       0                       # Number of TLB faults due to prefetch
system.cpu.dtb.domainFaults                         0                       # Number of TLB faults due to domain restrictions
system.cpu.dtb.permsFaults                          0                       # Number of TLB faults due to permissions restrictions
system.cpu.dtb.readAccesses                         0                       # DTB read accesses
system.cpu.dtb.writeAccesses                        0                       # DTB write accesses
system.cpu.dtb.instAccesses                         0                       # ITB inst accesses
system.cpu.dtb.hits                                 0                       # Total TLB (inst and data) hits
system.cpu.dtb.misses                               0                       # Total TLB (inst and data) misses
system.cpu.dtb.accesses                             0                       # Total TLB (inst and data) accesses
system.cpu.dtb.stage2_mmu.stage2_tlb.instHits            0                       # ITB inst hits
system.cpu.dtb.stage2_mmu.stage2_tlb.instMisses            0                       # ITB inst misses
system.cpu.dtb.stage2_mmu.stage2_tlb.readHits            0                       # DTB read hits
system.cpu.dtb.stage2_mmu.stage2_tlb.readMisses            0                       # DTB read misses
system.cpu.dtb.stage2_mmu.stage2_tlb.writeHits            0                       # DTB write hits
system.cpu.dtb.stage2_mmu.stage2_tlb.writeMisses            0                       # DTB write misses
system.cpu.dtb.stage2_mmu.stage2_tlb.inserts            0                       # Number of times an entry is inserted into the TLB
system.cpu.dtb.stage2_mmu.stage2_tlb.flushTlb            0                       # Number of times complete TLB was flushed
system.cpu.dtb.stage2_mmu.stage2_tlb.flushTlbMva            0                       # Number of times TLB was flushed by MVA
system.cpu.dtb.stage2_mmu.stage2_tlb.flushTlbMvaAsid            0                       # Number of times TLB was flushed by MVA & ASID
system.cpu.dtb.stage2_mmu.stage2_tlb.flushTlbAsid            0                       # Number of times TLB was flushed by ASID
system.cpu.dtb.stage2_mmu.stage2_tlb.flushedEntries            0                       # Number of entries that have been flushed from TLB
system.cpu.dtb.stage2_mmu.stage2_tlb.alignFaults            0                       # Number of TLB faults due to alignment restrictions
system.cpu.dtb.stage2_mmu.stage2_tlb.prefetchFaults            0                       # Number of TLB faults due to prefetch
system.cpu.dtb.stage2_mmu.stage2_tlb.domainFaults            0                       # Number of TLB faults due to domain restrictions
system.cpu.dtb.stage2_mmu.stage2_tlb.permsFaults            0                       # Number of TLB faults due to permissions restrictions
system.cpu.dtb.stage2_mmu.stage2_tlb.readAccesses            0                       # DTB read accesses
system.cpu.dtb.stage2_mmu.stage2_tlb.writeAccesses            0                       # DTB write accesses
system.cpu.dtb.stage2_mmu.stage2_tlb.instAccesses            0                       # ITB inst accesses
system.cpu.dtb.stage2_mmu.stage2_tlb.hits            0                       # Total TLB (inst and data) hits
system.cpu.dtb.stage2_mmu.stage2_tlb.misses            0                       # Total TLB (inst and data) misses
system.cpu.dtb.stage2_mmu.stage2_tlb.accesses            0                       # Total TLB (inst and data) accesses
system.cpu.dtb.stage2_mmu.stage2_tlb.walker.walks            0                       # Table walker walks requested
system.cpu.dtb.stage2_mmu.stage2_tlb.walker.requestOrigin_Requested::Data            0                       # Table walker requests started/completed, data/inst
system.cpu.dtb.stage2_mmu.stage2_tlb.walker.requestOrigin_Requested::Inst            0                       # Table walker requests started/completed, data/inst
system.cpu.dtb.stage2_mmu.stage2_tlb.walker.requestOrigin_Requested::total            0                       # Table walker requests started/completed, data/inst
system.cpu.dtb.stage2_mmu.stage2_tlb.walker.requestOrigin_Completed::Data            0                       # Table walker requests started/completed, data/inst
system.cpu.dtb.stage2_mmu.stage2_tlb.walker.requestOrigin_Completed::Inst            0                       # Table walker requests started/completed, data/inst
system.cpu.dtb.stage2_mmu.stage2_tlb.walker.requestOrigin_Completed::total            0                       # Table walker requests started/completed, data/inst
system.cpu.dtb.stage2_mmu.stage2_tlb.walker.requestOrigin::total            0                       # Table walker requests started/completed, data/inst
system.cpu.dtb.stage2_mmu.stage2_tlb.walker.power_state.pwrStateResidencyTicks::UNDEFINED 111979029000                       # Cumulative time (in ticks) in various power states
system.cpu.dtb.walker.walks                         0                       # Table walker walks requested
system.cpu.dtb.walker.requestOrigin_Requested::Data            0                       # Table walker requests started/completed, data/inst
system.cpu.dtb.walker.requestOrigin_Requested::Inst            0                       # Table walker requests started/completed, data/inst
system.cpu.dtb.walker.requestOrigin_Requested::total            0                       # Table walker requests started/completed, data/inst
system.cpu.dtb.walker.requestOrigin_Completed::Data            0                       # Table walker requests started/completed, data/inst
system.cpu.dtb.walker.requestOrigin_Completed::Inst            0                       # Table walker requests started/completed, data/inst
system.cpu.dtb.walker.requestOrigin_Completed::total            0                       # Table walker requests started/completed, data/inst
system.cpu.dtb.walker.requestOrigin::total            0                       # Table walker requests started/completed, data/inst
system.cpu.dtb.walker.power_state.pwrStateResidencyTicks::UNDEFINED 111979029000                       # Cumulative time (in ticks) in various power states
system.cpu.fetch2.intInstructions            49405956                       # Number of integer instructions successfully decoded
system.cpu.fetch2.fpInstructions                    0                       # Number of floating point instructions successfully decoded
system.cpu.fetch2.vecInstructions                   0                       # Number of SIMD instructions successfully decoded
system.cpu.fetch2.loadInstructions           17098745                       # Number of memory load instructions successfully decoded
system.cpu.fetch2.storeInstructions           9762439                       # Number of memory store instructions successfully decoded
system.cpu.fetch2.amoInstructions                   0                       # Number of memory atomic instructions successfully decoded
system.cpu.icache.demand_hits::.cpu.inst     27806361                       # number of demand (read+write) hits
system.cpu.icache.demand_hits::total         27806361                       # number of demand (read+write) hits
system.cpu.icache.overall_hits::.cpu.inst     27806361                       # number of overall hits
system.cpu.icache.overall_hits::total        27806361                       # number of overall hits
system.cpu.icache.demand_misses::.cpu.inst          525                       # number of demand (read+write) misses
system.cpu.icache.demand_misses::total            525                       # number of demand (read+write) misses
system.cpu.icache.overall_misses::.cpu.inst          525                       # number of overall misses
system.cpu.icache.overall_misses::total           525                       # number of overall misses
system.cpu.icache.demand_miss_latency::.cpu.inst     53175000                       # number of demand (read+write) miss cycles
system.cpu.icache.demand_miss_latency::total     53175000                       # number of demand (read+write) miss cycles
system.cpu.icache.overall_miss_latency::.cpu.inst     53175000                       # number of overall miss cycles
system.cpu.icache.overall_miss_latency::total     53175000                       # number of overall miss cycles
system.cpu.icache.demand_accesses::.cpu.inst     27806886                       # number of demand (read+write) accesses
system.cpu.icache.demand_accesses::total     27806886                       # number of demand (read+write) accesses
system.cpu.icache.overall_accesses::.cpu.inst     27806886                       # number of overall (read+write) accesses
system.cpu.icache.overall_accesses::total     27806886                       # number of overall (read+write) accesses
system.cpu.icache.demand_miss_rate::.cpu.inst     0.000019                       # miss rate for demand accesses
system.cpu.icache.demand_miss_rate::total     0.000019                       # miss rate for demand accesses
system.cpu.icache.overall_miss_rate::.cpu.inst     0.000019                       # miss rate for overall accesses
system.cpu.icache.overall_miss_rate::total     0.000019                       # miss rate for overall accesses
system.cpu.icache.demand_avg_miss_latency::.cpu.inst 101285.714286                       # average overall miss latency
system.cpu.icache.demand_avg_miss_latency::total 101285.714286                       # average overall miss latency
system.cpu.icache.overall_avg_miss_latency::.cpu.inst 101285.714286                       # average overall miss latency
system.cpu.icache.overall_avg_miss_latency::total 101285.714286                       # average overall miss latency
system.cpu.icache.blocked_cycles::no_mshrs            0                       # number of cycles access was blocked
system.cpu.icache.blocked_cycles::no_targets            0                       # number of cycles access was blocked
system.cpu.icache.blocked::no_mshrs                 0                       # number of cycles access was blocked
system.cpu.icache.blocked::no_targets               0                       # number of cycles access was blocked
system.cpu.icache.avg_blocked_cycles::no_mshrs          nan                       # average number of cycles each access was blocked
system.cpu.icache.avg_blocked_cycles::no_targets          nan                       # average number of cycles each access was blocked
system.cpu.icache.writebacks::.writebacks            5                       # number of writebacks
system.cpu.icache.writebacks::total                 5                       # number of writebacks
system.cpu.icache.demand_mshr_misses::.cpu.inst          525                       # number of demand (read+write) MSHR misses
system.cpu.icache.demand_mshr_misses::total          525                       # number of demand (read+write) MSHR misses
system.cpu.icache.overall_mshr_misses::.cpu.inst          525                       # number of overall MSHR misses
system.cpu.icache.overall_mshr_misses::total          525                       # number of overall MSHR misses
system.cpu.icache.demand_mshr_miss_latency::.cpu.inst     52125000                       # number of demand (read+write) MSHR miss cycles
system.cpu.icache.demand_mshr_miss_latency::total     52125000                       # number of demand (read+write) MSHR miss cycles
system.cpu.icache.overall_mshr_miss_latency::.cpu.inst     52125000                       # number of overall MSHR miss cycles
system.cpu.icache.overall_mshr_miss_latency::total     52125000                       # number of overall MSHR miss cycles
system.cpu.icache.demand_mshr_miss_rate::.cpu.inst     0.000019                       # mshr miss rate for demand accesses
system.cpu.icache.demand_mshr_miss_rate::total     0.000019                       # mshr miss rate for demand accesses
system.cpu.icache.overall_mshr_miss_rate::.cpu.inst     0.000019                       # mshr miss rate for overall accesses
system.cpu.icache.overall_mshr_miss_rate::total     0.000019                       # mshr miss rate for overall accesses
system.cpu.icache.demand_avg_mshr_miss_latency::.cpu.inst 99285.714286                       # average overall mshr miss latency
system.cpu.icache.demand_avg_mshr_miss_latency::total 99285.714286                       # average overall mshr miss latency
system.cpu.icache.overall_avg_mshr_miss_latency::.cpu.inst 99285.714286                       # average overall mshr miss latency
system.cpu.icache.overall_avg_mshr_miss_latency::total 99285.714286                       # average overall mshr miss latency
system.cpu.icache.replacements                      5                       # number of replacements
system.cpu.icache.ReadReq_hits::.cpu.inst     27806361                       # number of ReadReq hits
system.cpu.icache.ReadReq_hits::total        27806361                       # number of ReadReq hits
system.cpu.icache.ReadReq_misses::.cpu.inst          525                       # number of ReadReq misses
system.cpu.icache.ReadReq_misses::total           525                       # number of ReadReq misses
system.cpu.icache.ReadReq_miss_latency::.cpu.inst     53175000                       # number of ReadReq miss cycles
system.cpu.icache.ReadReq_miss_latency::total     53175000                       # number of ReadReq miss cycles
system.cpu.icache.ReadReq_accesses::.cpu.inst     27806886                       # number of ReadReq accesses(hits+misses)
system.cpu.icache.ReadReq_accesses::total     27806886                       # number of ReadReq accesses(hits+misses)
system.cpu.icache.ReadReq_miss_rate::.cpu.inst     0.000019                       # miss rate for ReadReq accesses
system.cpu.icache.ReadReq_miss_rate::total     0.000019                       # miss rate for ReadReq accesses
system.cpu.icache.ReadReq_avg_miss_latency::.cpu.inst 101285.714286                       # average ReadReq miss latency
system.cpu.icache.ReadReq_avg_miss_latency::total 101285.714286                       # average ReadReq miss latency
system.cpu.icache.ReadReq_mshr_misses::.cpu.inst          525                       # number of ReadReq MSHR misses
system.cpu.icache.ReadReq_mshr_misses::total          525                       # number of ReadReq MSHR misses
system.cpu.icache.ReadReq_mshr_miss_latency::.cpu.inst     52125000                       # number of ReadReq MSHR miss cycles
system.cpu.icache.ReadReq_mshr_miss_latency::total     52125000                       # number of ReadReq MSHR miss cycles
system.cpu.icache.ReadReq_mshr_miss_rate::.cpu.inst     0.000019                       # mshr miss rate for ReadReq accesses
system.cpu.icache.ReadReq_mshr_miss_rate::total     0.000019                       # mshr miss rate for ReadReq accesses
system.cpu.icache.ReadReq_avg_mshr_miss_latency::.cpu.inst 99285.714286                       # average ReadReq mshr miss latency
system.cpu.icache.ReadReq_avg_mshr_miss_latency::total 99285.714286                       # average ReadReq mshr miss latency
system.cpu.icache.power_state.pwrStateResidencyTicks::UNDEFINED 111979029000                       # Cumulative time (in ticks) in various power states
system.cpu.icache.tags.tagsinuse           518.903378                       # Cycle average of tags in use
system.cpu.icache.tags.total_refs            27806886                       # Total number of references to valid blocks.
system.cpu.icache.tags.sampled_refs               525                       # Sample count of references to valid blocks.
system.cpu.icache.tags.avg_refs          52965.497143                       # Average number of references to valid blocks.
system.cpu.icache.tags.warmup_cycle            108000                       # Cycle when the warmup percentage was hit.
system.cpu.icache.tags.occ_blocks::.cpu.inst   518.903378                       # Average occupied blocks per requestor
system.cpu.icache.tags.occ_percent::.cpu.inst     0.253371                       # Average percentage of cache occupancy
system.cpu.icache.tags.occ_percent::total     0.253371                       # Average percentage of cache occupancy
system.cpu.icache.tags.occ_task_id_blocks::1024          520                       # Occupied blocks per task id
system.cpu.icache.tags.age_task_id_blocks_1024::4          520                       # Occupied blocks per task id
system.cpu.icache.tags.occ_task_id_percent::1024     0.253906                       # Percentage of cache occupancy per task id
system.cpu.icache.tags.tag_accesses          55614297                       # Number of tag accesses
system.cpu.icache.tags.data_accesses         55614297                       # Number of data accesses
system.cpu.icache.tags.power_state.pwrStateResidencyTicks::UNDEFINED 111979029000                       # Cumulative time (in ticks) in various power states
system.cpu.itb.instHits                             0                       # ITB inst hits
system.cpu.itb.instMisses                           0                       # ITB inst misses
system.cpu.itb.readHits                             0                       # DTB read hits
system.cpu.itb.readMisses                           0                       # DTB read misses
system.cpu.itb.writeHits                            0                       # DTB write hits
system.cpu.itb.writeMisses                          0                       # DTB write misses
system.cpu.itb.inserts                              0                       # Number of times an entry is inserted into the TLB
system.cpu.itb.flushTlb                             0                       # Number of times complete TLB was flushed
system.cpu.itb.flushTlbMva                          0                       # Number of times TLB was flushed by MVA
system.cpu.itb.flushTlbMvaAsid                      0                       # Number of times TLB was flushed by MVA & ASID
system.cpu.itb.flushTlbAsid                         0                       # Number of times TLB was flushed by ASID
system.cpu.itb.flushedEntries                       0                       # Number of entries that have been flushed from TLB
system.cpu.itb.alignFaults                          0                       # Number of TLB faults due to alignment restrictions
system.cpu.itb.prefetchFaults                       0                       # Number of TLB faults due to prefetch
system.cpu.itb.domainFaults                         0                       # Number of TLB faults due to domain restrictions
system.cpu.itb.permsFaults                          0                       # Number of TLB faults due to permissions restrictions
system.cpu.itb.readAccesses                         0                       # DTB read accesses
system.cpu.itb.writeAccesses                        0                       # DTB write accesses
system.cpu.itb.instAccesses                         0                       # ITB inst accesses
system.cpu.itb.hits                                 0                       # Total TLB (inst and data) hits
system.cpu.itb.misses                               0                       # Total TLB (inst and data) misses
system.cpu.itb.accesses                             0                       # Total TLB (inst and data) accesses
system.cpu.itb.stage2_mmu.stage2_tlb.instHits            0                       # ITB inst hits
system.cpu.itb.stage2_mmu.stage2_tlb.instMisses            0                       # ITB inst misses
system.cpu.itb.stage2_mmu.stage2_tlb.readHits            0                       # DTB read hits
system.cpu.itb.stage2_mmu.stage2_tlb.readMisses            0                       # DTB read misses
system.cpu.itb.stage2_mmu.stage2_tlb.writeHits            0                       # DTB write hits
system.cpu.itb.stage2_mmu.stage2_tlb.writeMisses            0                       # DTB write misses
system.cpu.itb.stage2_mmu.stage2_tlb.inserts            0                       # Number of times an entry is inserted into the TLB
system.cpu.itb.stage2_mmu.stage2_tlb.flushTlb            0                       # Number of times complete TLB was flushed
system.cpu.itb.stage2_mmu.stage2_tlb.flushTlbMva            0                       # Number of times TLB was flushed by MVA
system.cpu.itb.stage2_mmu.stage2_tlb.flushTlbMvaAsid            0                       # Number of times TLB was flushed by MVA & ASID
system.cpu.itb.stage2_mmu.stage2_tlb.flushTlbAsid            0                       # Number of times TLB was flushed by ASID
system.cpu.itb.stage2_mmu.stage2_tlb.flushedEntries            0                       # Number of entries that have been flushed from TLB
system.cpu.itb.stage2_mmu.stage2_tlb.alignFaults            0                       # Number of TLB faults due to alignment restrictions
system.cpu.itb.stage2_mmu.stage2_tlb.prefetchFaults            0                       # Number of TLB faults due to prefetch
system.cpu.itb.stage2_mmu.stage2_tlb.domainFaults            0                       # Number of TLB faults due to domain restrictions
system.cpu.itb.stage2_mmu.stage2_tlb.permsFaults            0                       # Number of TLB faults due to permissions restrictions
system.cpu.itb.stage2_mmu.stage2_tlb.readAccesses            0                       # DTB read accesses
system.cpu.itb.stage2_mmu.stage2_tlb.writeAccesses            0                       # DTB write accesses
system.cpu.itb.stage2_mmu.stage2_tlb.instAccesses            0                       # ITB inst accesses
system.cpu.itb.stage2_mmu.stage2_tlb.hits            0                       # Total TLB (inst and data) hits
system.cpu.itb.stage2_mmu.stage2_tlb.misses            0                       # Total TLB (inst and data) misses
system.cpu.itb.stage2_mmu.stage2_tlb.accesses            0                       # Total TLB (inst and data) accesses
system.cpu.itb.stage2_mmu.stage2_tlb.walker.walks            0                       # Table walker walks requested
system.cpu.itb.stage2_mmu.stage2_tlb.walker.requestOrigin_Requested::Data            0                       # Table walker requests started/completed, data/inst
system.cpu.itb.stage2_mmu.stage2_tlb.walker.requestOrigin_Requested::Inst            0                       # Table walker requests started/completed, data/inst
system.cpu.itb.stage2_mmu.stage2_tlb.walker.requestOrigin_Requested::total            0                       # Table walker requests started/completed, data/inst
system.cpu.itb.stage2_mmu.stage2_tlb.walker.requestOrigin_Completed::Data            0                       # Table walker requests started/completed, data/inst
system.cpu.itb.stage2_mmu.stage2_tlb.walker.requestOrigin_Completed::Inst            0                       # Table walker requests started/completed, data/inst
system.cpu.itb.stage2_mmu.stage2_tlb.walker.requestOrigin_Completed::total            0                       # Table walker requests started/completed, data/inst
system.cpu.itb.stage2_mmu.stage2_tlb.walker.requestOrigin::total            0                       # Table walker requests started/completed, data/inst
system.cpu.itb.stage2_mmu.stage2_tlb.walker.power_state.pwrStateResidencyTicks::UNDEFINED 111979029000                       # Cumulative time (in ticks) in various power states
system.cpu.itb.walker.walks                         0                       # Table walker walks requested
system.cpu.itb.walker.requestOrigin_Requested::Data            0                       # Table walker requests started/completed, data/inst
system.cpu.itb.walker.requestOrigin_Requested::Inst            0                       # Table walker requests started/completed, data/inst
system.cpu.itb.walker.requestOrigin_Requested::total            0                       # Table walker requests started/completed, data/inst
system.cpu.itb.walker.requestOrigin_Completed::Data            0                       # Table walker requests started/completed, data/inst
system.cpu.itb.walker.requestOrigin_Completed::Inst            0                       # Table walker requests started/completed, data/inst
system.cpu.itb.walker.requestOrigin_Completed::total            0                       # Table walker requests started/completed, data/inst
system.cpu.itb.walker.requestOrigin::total            0                       # Table walker requests started/completed, data/inst
system.cpu.itb.walker.power_state.pwrStateResidencyTicks::UNDEFINED 111979029000                       # Cumulative time (in ticks) in various power states
system.cpu.power_state.pwrStateResidencyTicks::ON 111979029000                       # Cumulative time (in ticks) in various power states
system.cpu.thread_0.numInsts                100000000                       # Number of Instructions committed
system.cpu.thread_0.numOps                  109423148                       # Number of Ops committed
system.cpu.thread_0.numMemRefs                      0                       # Number of Memory References
system.cpu_clk_domain.clock                      1000                       # Clock period in ticks
system.cpu_voltage_domain.voltage                   1                       # Voltage in Volts
system.l2.demand_hits::.cpu.inst                    8                       # number of demand (read+write) hits
system.l2.demand_hits::.cpu.data                 7942                       # number of demand (read+write) hits
system.l2.demand_hits::total                     7950                       # number of demand (read+write) hits
system.l2.overall_hits::.cpu.inst                   8                       # number of overall hits
system.l2.overall_hits::.cpu.data                7942                       # number of overall hits
system.l2.overall_hits::total                    7950                       # number of overall hits
system.l2.demand_misses::.cpu.inst                517                       # number of demand (read+write) misses
system.l2.demand_misses::.cpu.data              42802                       # number of demand (read+write) misses
system.l2.demand_misses::total                  43319                       # number of demand (read+write) misses
system.l2.overall_misses::.cpu.inst               517                       # number of overall misses
system.l2.overall_misses::.cpu.data             42802                       # number of overall misses
system.l2.overall_misses::total                 43319                       # number of overall misses
system.l2.demand_miss_latency::.cpu.inst     50366000                       # number of demand (read+write) miss cycles
system.l2.demand_miss_latency::.cpu.data   4388194000                       # number of demand (read+write) miss cycles
system.l2.demand_miss_latency::total       4438560000                       # number of demand (read+write) miss cycles
system.l2.overall_miss_latency::.cpu.inst     50366000                       # number of overall miss cycles
system.l2.overall_miss_latency::.cpu.data   4388194000                       # number of overall miss cycles
system.l2.overall_miss_latency::total      4438560000                       # number of overall miss cycles
system.l2.demand_accesses::.cpu.inst              525                       # number of demand (read+write) accesses
system.l2.demand_accesses::.cpu.data            50744                       # number of demand (read+write) accesses
system.l2.demand_accesses::total                51269                       # number of demand (read+write) accesses
system.l2.overall_accesses::.cpu.inst             525                       # number of overall (read+write) accesses
system.l2.overall_accesses::.cpu.data           50744                       # number of overall (read+write) accesses
system.l2.overall_accesses::total               51269                       # number of overall (read+write) accesses
system.l2.demand_miss_rate::.cpu.inst        0.984762                       # miss rate for demand accesses
system.l2.demand_miss_rate::.cpu.data        0.843489                       # miss rate for demand accesses
system.l2.demand_miss_rate::total            0.844936                       # miss rate for demand accesses
system.l2.overall_miss_rate::.cpu.inst       0.984762                       # miss rate for overall accesses
system.l2.overall_miss_rate::.cpu.data       0.843489                       # miss rate for overall accesses
system.l2.overall_miss_rate::total           0.844936                       # miss rate for overall accesses
system.l2.demand_avg_miss_latency::.cpu.inst 97419.729207                       # average overall miss latency
system.l2.demand_avg_miss_latency::.cpu.data 102523.106397                       # average overall miss latency
system.l2.demand_avg_miss_latency::total 102462.199035                       # average overall miss latency
system.l2.overall_avg_miss_latency::.cpu.inst 97419.729207                       # average overall miss latency
system.l2.overall_avg_miss_latency::.cpu.data 102523.106397                       # average overall miss latency
system.l2.overall_avg_miss_latency::total 102462.199035                       # average overall miss latency
system.l2.blocked_cycles::no_mshrs                  0                       # number of cycles access was blocked
system.l2.blocked_cycles::no_targets                0                       # number of cycles access was blocked
system.l2.blocked::no_mshrs                         0                       # number of cycles access was blocked
system.l2.blocked::no_targets                       0                       # number of cycles access was blocked
system.l2.avg_blocked_cycles::no_mshrs            nan                       # average number of cycles each access was blocked
system.l2.avg_blocked_cycles::no_targets          nan                       # average number of cycles each access was blocked
system.l2.writebacks::.writebacks               26236                       # number of writebacks
system.l2.writebacks::total                     26236                       # number of writebacks
system.l2.demand_mshr_hits::.cpu.data               5                       # number of demand (read+write) MSHR hits
system.l2.demand_mshr_hits::total                   5                       # number of demand (read+write) MSHR hits
system.l2.overall_mshr_hits::.cpu.data              5                       # number of overall MSHR hits
system.l2.overall_mshr_hits::total                  5                       # number of overall MSHR hits
system.l2.demand_mshr_misses::.cpu.inst           517                       # number of demand (read+write) MSHR misses
system.l2.demand_mshr_misses::.cpu.data         42797                       # number of demand (read+write) MSHR misses
system.l2.demand_mshr_misses::total             43314                       # number of demand (read+write) MSHR misses
system.l2.overall_mshr_misses::.cpu.inst          517                       # number of overall MSHR misses
system.l2.overall_mshr_misses::.cpu.data        42797                       # number of overall MSHR misses
system.l2.overall_mshr_misses::total            43314                       # number of overall MSHR misses
system.l2.demand_mshr_miss_latency::.cpu.inst     40026000                       # number of demand (read+write) MSHR miss cycles
system.l2.demand_mshr_miss_latency::.cpu.data   3531842000                       # number of demand (read+write) MSHR miss cycles
system.l2.demand_mshr_miss_latency::total   3571868000                       # number of demand (read+write) MSHR miss cycles
system.l2.overall_mshr_miss_latency::.cpu.inst     40026000                       # number of overall MSHR miss cycles
system.l2.overall_mshr_miss_latency::.cpu.data   3531842000                       # number of overall MSHR miss cycles
system.l2.overall_mshr_miss_latency::total   3571868000                       # number of overall MSHR miss cycles
system.l2.demand_mshr_miss_rate::.cpu.inst     0.984762                       # mshr miss rate for demand accesses
system.l2.demand_mshr_miss_rate::.cpu.data     0.843390                       # mshr miss rate for demand accesses
system.l2.demand_mshr_miss_rate::total       0.844838                       # mshr miss rate for demand accesses
system.l2.overall_mshr_miss_rate::.cpu.inst     0.984762                       # mshr miss rate for overall accesses
system.l2.overall_mshr_miss_rate::.cpu.data     0.843390                       # mshr miss rate for overall accesses
system.l2.overall_mshr_miss_rate::total      0.844838                       # mshr miss rate for overall accesses
system.l2.demand_avg_mshr_miss_latency::.cpu.inst 77419.729207                       # average overall mshr miss latency
system.l2.demand_avg_mshr_miss_latency::.cpu.data 82525.457392                       # average overall mshr miss latency
system.l2.demand_avg_mshr_miss_latency::total 82464.514937                       # average overall mshr miss latency
system.l2.overall_avg_mshr_miss_latency::.cpu.inst 77419.729207                       # average overall mshr miss latency
system.l2.overall_avg_mshr_miss_latency::.cpu.data 82525.457392                       # average overall mshr miss latency
system.l2.overall_avg_mshr_miss_latency::total 82464.514937                       # average overall mshr miss latency
system.l2.replacements                          27231                       # number of replacements
system.l2.WritebackDirty_hits::.writebacks        47141                       # number of WritebackDirty hits
system.l2.WritebackDirty_hits::total            47141                       # number of WritebackDirty hits
system.l2.WritebackDirty_accesses::.writebacks        47141                       # number of WritebackDirty accesses(hits+misses)
system.l2.WritebackDirty_accesses::total        47141                       # number of WritebackDirty accesses(hits+misses)
system.l2.WritebackClean_hits::.writebacks            5                       # number of WritebackClean hits
system.l2.WritebackClean_hits::total                5                       # number of WritebackClean hits
system.l2.WritebackClean_accesses::.writebacks            5                       # number of WritebackClean accesses(hits+misses)
system.l2.WritebackClean_accesses::total            5                       # number of WritebackClean accesses(hits+misses)
system.l2.CleanEvict_mshr_misses::.writebacks           57                       # number of CleanEvict MSHR misses
system.l2.CleanEvict_mshr_misses::total            57                       # number of CleanEvict MSHR misses
system.l2.CleanEvict_mshr_miss_rate::.writebacks          inf                       # mshr miss rate for CleanEvict accesses
system.l2.CleanEvict_mshr_miss_rate::total          inf                       # mshr miss rate for CleanEvict accesses
system.l2.ReadExReq_hits::.cpu.data                12                       # number of ReadExReq hits
system.l2.ReadExReq_hits::total                    12                       # number of ReadExReq hits
system.l2.ReadExReq_misses::.cpu.data           38792                       # number of ReadExReq misses
system.l2.ReadExReq_misses::total               38792                       # number of ReadExReq misses
system.l2.ReadExReq_miss_latency::.cpu.data   3943214000                       # number of ReadExReq miss cycles
system.l2.ReadExReq_miss_latency::total    3943214000                       # number of ReadExReq miss cycles
system.l2.ReadExReq_accesses::.cpu.data         38804                       # number of ReadExReq accesses(hits+misses)
system.l2.ReadExReq_accesses::total             38804                       # number of ReadExReq accesses(hits+misses)
system.l2.ReadExReq_miss_rate::.cpu.data     0.999691                       # miss rate for ReadExReq accesses
system.l2.ReadExReq_miss_rate::total         0.999691                       # miss rate for ReadExReq accesses
system.l2.ReadExReq_avg_miss_latency::.cpu.data 101650.185605                       # average ReadExReq miss latency
system.l2.ReadExReq_avg_miss_latency::total 101650.185605                       # average ReadExReq miss latency
system.l2.ReadExReq_mshr_misses::.cpu.data        38792                       # number of ReadExReq MSHR misses
system.l2.ReadExReq_mshr_misses::total          38792                       # number of ReadExReq MSHR misses
system.l2.ReadExReq_mshr_miss_latency::.cpu.data   3167374000                       # number of ReadExReq MSHR miss cycles
system.l2.ReadExReq_mshr_miss_latency::total   3167374000                       # number of ReadExReq MSHR miss cycles
system.l2.ReadExReq_mshr_miss_rate::.cpu.data     0.999691                       # mshr miss rate for ReadExReq accesses
system.l2.ReadExReq_mshr_miss_rate::total     0.999691                       # mshr miss rate for ReadExReq accesses
system.l2.ReadExReq_avg_mshr_miss_latency::.cpu.data 81650.185605                       # average ReadExReq mshr miss latency
system.l2.ReadExReq_avg_mshr_miss_latency::total 81650.185605                       # average ReadExReq mshr miss latency
system.l2.ReadCleanReq_hits::.cpu.inst              8                       # number of ReadCleanReq hits
system.l2.ReadCleanReq_hits::total                  8                       # number of ReadCleanReq hits
system.l2.ReadCleanReq_misses::.cpu.inst          517                       # number of ReadCleanReq misses
system.l2.ReadCleanReq_misses::total              517                       # number of ReadCleanReq misses
system.l2.ReadCleanReq_miss_latency::.cpu.inst     50366000                       # number of ReadCleanReq miss cycles
system.l2.ReadCleanReq_miss_latency::total     50366000                       # number of ReadCleanReq miss cycles
system.l2.ReadCleanReq_accesses::.cpu.inst          525                       # number of ReadCleanReq accesses(hits+misses)
system.l2.ReadCleanReq_accesses::total            525                       # number of ReadCleanReq accesses(hits+misses)
system.l2.ReadCleanReq_miss_rate::.cpu.inst     0.984762                       # miss rate for ReadCleanReq accesses
system.l2.ReadCleanReq_miss_rate::total      0.984762                       # miss rate for ReadCleanReq accesses
system.l2.ReadCleanReq_avg_miss_latency::.cpu.inst 97419.729207                       # average ReadCleanReq miss latency
system.l2.ReadCleanReq_avg_miss_latency::total 97419.729207                       # average ReadCleanReq miss latency
system.l2.ReadCleanReq_mshr_misses::.cpu.inst          517                       # number of ReadCleanReq MSHR misses
system.l2.ReadCleanReq_mshr_misses::total          517                       # number of ReadCleanReq MSHR misses
system.l2.ReadCleanReq_mshr_miss_latency::.cpu.inst     40026000                       # number of ReadCleanReq MSHR miss cycles
system.l2.ReadCleanReq_mshr_miss_latency::total     40026000                       # number of ReadCleanReq MSHR miss cycles
system.l2.ReadCleanReq_mshr_miss_rate::.cpu.inst     0.984762                       # mshr miss rate for ReadCleanReq accesses
system.l2.ReadCleanReq_mshr_miss_rate::total     0.984762                       # mshr miss rate for ReadCleanReq accesses
system.l2.ReadCleanReq_avg_mshr_miss_latency::.cpu.inst 77419.729207                       # average ReadCleanReq mshr miss latency
system.l2.ReadCleanReq_avg_mshr_miss_latency::total 77419.729207                       # average ReadCleanReq mshr miss latency
system.l2.ReadSharedReq_hits::.cpu.data          7930                       # number of ReadSharedReq hits
system.l2.ReadSharedReq_hits::total              7930                       # number of ReadSharedReq hits
system.l2.ReadSharedReq_misses::.cpu.data         4010                       # number of ReadSharedReq misses
system.l2.ReadSharedReq_misses::total            4010                       # number of ReadSharedReq misses
system.l2.ReadSharedReq_miss_latency::.cpu.data    444980000                       # number of ReadSharedReq miss cycles
system.l2.ReadSharedReq_miss_latency::total    444980000                       # number of ReadSharedReq miss cycles
system.l2.ReadSharedReq_accesses::.cpu.data        11940                       # number of ReadSharedReq accesses(hits+misses)
system.l2.ReadSharedReq_accesses::total         11940                       # number of ReadSharedReq accesses(hits+misses)
system.l2.ReadSharedReq_miss_rate::.cpu.data     0.335846                       # miss rate for ReadSharedReq accesses
system.l2.ReadSharedReq_miss_rate::total     0.335846                       # miss rate for ReadSharedReq accesses
system.l2.ReadSharedReq_avg_miss_latency::.cpu.data 110967.581047                       # average ReadSharedReq miss latency
system.l2.ReadSharedReq_avg_miss_latency::total 110967.581047                       # average ReadSharedReq miss latency
system.l2.ReadSharedReq_mshr_hits::.cpu.data            5                       # number of ReadSharedReq MSHR hits
system.l2.ReadSharedReq_mshr_hits::total            5                       # number of ReadSharedReq MSHR hits
system.l2.ReadSharedReq_mshr_misses::.cpu.data         4005                       # number of ReadSharedReq MSHR misses
system.l2.ReadSharedReq_mshr_misses::total         4005                       # number of ReadSharedReq MSHR misses
system.l2.ReadSharedReq_mshr_miss_latency::.cpu.data    364468000                       # number of ReadSharedReq MSHR miss cycles
system.l2.ReadSharedReq_mshr_miss_latency::total    364468000                       # number of ReadSharedReq MSHR miss cycles
system.l2.ReadSharedReq_mshr_miss_rate::.cpu.data     0.335427                       # mshr miss rate for ReadSharedReq accesses
system.l2.ReadSharedReq_mshr_miss_rate::total     0.335427                       # mshr miss rate for ReadSharedReq accesses
system.l2.ReadSharedReq_avg_mshr_miss_latency::.cpu.data 91003.245943                       # average ReadSharedReq mshr miss latency
system.l2.ReadSharedReq_avg_mshr_miss_latency::total 91003.245943                       # average ReadSharedReq mshr miss latency
system.l2.power_state.pwrStateResidencyTicks::UNDEFINED 111979029000                       # Cumulative time (in ticks) in various power states
system.l2.tags.tagsinuse                 15593.544235                       # Cycle average of tags in use
system.l2.tags.total_refs                       99890                       # Total number of references to valid blocks.
system.l2.tags.sampled_refs                     43615                       # Sample count of references to valid blocks.
system.l2.tags.avg_refs                      2.290267                       # Average number of references to valid blocks.
system.l2.tags.warmup_cycle                     87000                       # Cycle when the warmup percentage was hit.
system.l2.tags.occ_blocks::.writebacks      60.939523                       # Average occupied blocks per requestor
system.l2.tags.occ_blocks::.cpu.inst        37.272391                       # Average occupied blocks per requestor
system.l2.tags.occ_blocks::.cpu.data     15495.332321                       # Average occupied blocks per requestor
system.l2.tags.occ_percent::.writebacks      0.003719                       # Average percentage of cache occupancy
system.l2.tags.occ_percent::.cpu.inst        0.002275                       # Average percentage of cache occupancy
system.l2.tags.occ_percent::.cpu.data        0.945760                       # Average percentage of cache occupancy
system.l2.tags.occ_percent::total            0.951754                       # Average percentage of cache occupancy
system.l2.tags.occ_task_id_blocks::1024         16384                       # Occupied blocks per task id
system.l2.tags.age_task_id_blocks_1024::0            2                       # Occupied blocks per task id
system.l2.tags.age_task_id_blocks_1024::1           18                       # Occupied blocks per task id
system.l2.tags.age_task_id_blocks_1024::2          234                       # Occupied blocks per task id
system.l2.tags.age_task_id_blocks_1024::3         2523                       # Occupied blocks per task id
system.l2.tags.age_task_id_blocks_1024::4        13607                       # Occupied blocks per task id
system.l2.tags.occ_task_id_percent::1024            1                       # Percentage of cache occupancy per task id
system.l2.tags.tag_accesses                    243519                       # Number of tag accesses
system.l2.tags.data_accesses                   243519                       # Number of data accesses
system.l2.tags.power_state.pwrStateResidencyTicks::UNDEFINED 111979029000                       # Cumulative time (in ticks) in various power states
system.mem_ctrls.avgPriority_.writebacks::samples     26236.00                       # Average QoS priority value for accepted requests
system.mem_ctrls.avgPriority_.cpu.inst::samples       517.00                       # Average QoS priority value for accepted requests
system.mem_ctrls.avgPriority_.cpu.data::samples     42790.00                       # Average QoS priority value for accepted requests
system.mem_ctrls.priorityMinLatency      0.000000018750                       # per QoS priority minimum request to response latency (s)
system.mem_ctrls.priorityMaxLatency      0.002531376500                       # per QoS priority maximum request to response latency (s)
system.mem_ctrls.numReadWriteTurnArounds         1458                       # Number of turnarounds from READ to WRITE
system.mem_ctrls.numWriteReadTurnArounds         1458                       # Number of turnarounds from WRITE to READ
system.mem_ctrls.numStayReadState              141329                       # Number of times bus staying in READ state
system.mem_ctrls.numStayWriteState              24801                       # Number of times bus staying in WRITE state
system.mem_ctrls.readReqs                       43314                       # Number of read requests accepted
system.mem_ctrls.writeReqs                      26236                       # Number of write requests accepted
system.mem_ctrls.readBursts                     43314                       # Number of controller read bursts, including those serviced by the write queue
system.mem_ctrls.writeBursts                    26236                       # Number of controller write bursts, including those merged in the write queue
system.mem_ctrls.servicedByWrQ                      7                       # Number of controller read bursts serviced by the write queue
system.mem_ctrls.mergedWrBursts                     0                       # Number of controller write bursts merged with an existing one
system.mem_ctrls.neitherReadNorWriteReqs            0                       # Number of requests that are neither read nor write
system.mem_ctrls.avgRdQLen                       1.03                       # Average read queue length when enqueuing
system.mem_ctrls.avgWrQLen                      22.13                       # Average write queue length when enqueuing
system.mem_ctrls.numRdRetry                         0                       # Number of times read queue was full causing retry
system.mem_ctrls.numWrRetry                         0                       # Number of times write queue was full causing retry
system.mem_ctrls.readPktSize::0                     0                       # Read request sizes (log2)
system.mem_ctrls.readPktSize::1                     0                       # Read request sizes (log2)
system.mem_ctrls.readPktSize::2                     0                       # Read request sizes (log2)
system.mem_ctrls.readPktSize::3                     0                       # Read request sizes (log2)
system.mem_ctrls.readPktSize::4                     0                       # Read request sizes (log2)
system.mem_ctrls.readPktSize::5                     0                       # Read request sizes (log2)
system.mem_ctrls.readPktSize::6                 43314                       # Read request sizes (log2)
system.mem_ctrls.writePktSize::0                    0                       # Write request sizes (log2)
system.mem_ctrls.writePktSize::1                    0                       # Write request sizes (log2)
system.mem_ctrls.writePktSize::2                    0                       # Write request sizes (log2)
system.mem_ctrls.writePktSize::3                    0                       # Write request sizes (log2)
system.mem_ctrls.writePktSize::4                    0                       # Write request sizes (log2)
system.mem_ctrls.writePktSize::5                    0                       # Write request sizes (log2)
system.mem_ctrls.writePktSize::6                26236                       # Write request sizes (log2)
system.mem_ctrls.rdQLenPdf::0                   42258                       # What read queue length does an incoming req see
system.mem_ctrls.rdQLenPdf::1                    1043                       # What read queue length does an incoming req see
system.mem_ctrls.rdQLenPdf::2                       6                       # What read queue length does an incoming req see
system.mem_ctrls.rdQLenPdf::3                       0                       # What read queue length does an incoming req see
system.mem_ctrls.rdQLenPdf::4                       0                       # What read queue length does an incoming req see
system.mem_ctrls.rdQLenPdf::5                       0                       # What read queue length does an incoming req see
system.mem_ctrls.rdQLenPdf::6                       0                       # What read queue length does an incoming req see
system.mem_ctrls.rdQLenPdf::7                       0                       # What read queue length does an incoming req see
[...]
system.mem_ctrls.dram.bw_write::.writebacks     14994808                       # Write bandwidth from this memory (bytes/s)
system.mem_ctrls.dram.bw_write::total        14994808                       # Write bandwidth from this memory (bytes/s)
system.mem_ctrls.dram.bw_total::.writebacks     14994808                       # Total bandwidth to/from this memory (bytes/s)
system.mem_ctrls.dram.bw_total::.cpu.inst       295484                       # Total bandwidth to/from this memory (bytes/s)
system.mem_ctrls.dram.bw_total::.cpu.data     24460008                       # Total bandwidth to/from this memory (bytes/s)
system.mem_ctrls.dram.bw_total::total        39750300                       # Total bandwidth to/from this memory (bytes/s)
system.mem_ctrls.dram.readBursts                43307                       # Number of DRAM read bursts
system.mem_ctrls.dram.writeBursts               26206                       # Number of DRAM write bursts
system.mem_ctrls.dram.perBankRdBursts::0         2716                       # Per bank write bursts
system.mem_ctrls.dram.perBankRdBursts::1         2687                       # Per bank write bursts
system.mem_ctrls.dram.perBankRdBursts::2         2682                       # Per bank write bursts
system.mem_ctrls.dram.perBankRdBursts::3         2731                       # Per bank write bursts
system.mem_ctrls.dram.perBankRdBursts::4         2679                       # Per bank write bursts
system.mem_ctrls.dram.perBankRdBursts::5         2738                       # Per bank write bursts
system.mem_ctrls.dram.perBankRdBursts::6         2593                       # Per bank write bursts
system.mem_ctrls.dram.perBankRdBursts::7         2690                       # Per bank write bursts
system.mem_ctrls.dram.perBankRdBursts::8         2761                       # Per bank write bursts
system.mem_ctrls.dram.perBankRdBursts::9         2712                       # Per bank write bursts
system.mem_ctrls.dram.perBankRdBursts::10         2706                       # Per bank write bursts
system.mem_ctrls.dram.perBankRdBursts::11         2760                       # Per bank write bursts
system.mem_ctrls.dram.perBankRdBursts::12         2678                       # Per bank write bursts
system.mem_ctrls.dram.perBankRdBursts::13         2721                       # Per bank write bursts
system.mem_ctrls.dram.perBankRdBursts::14         2695                       # Per bank write bursts
system.mem_ctrls.dram.perBankRdBursts::15         2758                       # Per bank write bursts
system.mem_ctrls.dram.perBankWrBursts::0         1644                       # Per bank write bursts
system.mem_ctrls.dram.perBankWrBursts::1         1615                       # Per bank write bursts
system.mem_ctrls.dram.perBankWrBursts::2         1643                       # Per bank write bursts
system.mem_ctrls.dram.perBankWrBursts::3         1625                       # Per bank write bursts
system.mem_ctrls.dram.perBankWrBursts::4         1574                       # Per bank write bursts
system.mem_ctrls.dram.perBankWrBursts::5         1672                       # Per bank write bursts
system.mem_ctrls.dram.perBankWrBursts::6         1569                       # Per bank write bursts
system.mem_ctrls.dram.perBankWrBursts::7         1638                       # Per bank write bursts
system.mem_ctrls.dram.perBankWrBursts::8         1709                       # Per bank write bursts
system.mem_ctrls.dram.perBankWrBursts::9         1637                       # Per bank write bursts
system.mem_ctrls.dram.perBankWrBursts::10         1644                       # Per bank write bursts
system.mem_ctrls.dram.perBankWrBursts::11         1670                       # Per bank write bursts
system.mem_ctrls.dram.perBankWrBursts::12         1601                       # Per bank write bursts
system.mem_ctrls.dram.perBankWrBursts::13         1672                       # Per bank write bursts
system.mem_ctrls.dram.perBankWrBursts::14         1610                       # Per bank write bursts
system.mem_ctrls.dram.perBankWrBursts::15         1683                       # Per bank write bursts
system.mem_ctrls.dram.totQLat               534764000                       # Total ticks spent queuing
system.mem_ctrls.dram.totBusLat             216535000                       # Total ticks spent in databus transfers
system.mem_ctrls.dram.totMemAccLat         1346770250                       # Total ticks spent from burst creation until serviced by the DRAM
system.mem_ctrls.dram.avgQLat                12348.21                       # Average queueing delay per DRAM burst
system.mem_ctrls.dram.avgBusLat               5000.00                       # Average bus latency per DRAM burst
system.mem_ctrls.dram.avgMemAccLat           31098.21                       # Average memory access latency per DRAM burst
system.mem_ctrls.dram.readRowHits               22040                       # Number of row buffer hits during reads
system.mem_ctrls.dram.writeRowHits              20240                       # Number of row buffer hits during writes
system.mem_ctrls.dram.readRowHitRate            50.89                       # Row buffer hit rate for reads
system.mem_ctrls.dram.writeRowHitRate           77.23                       # Row buffer hit rate for writes
system.mem_ctrls.dram.bytesPerActivate::samples        27232                       # Bytes accessed per row activation
system.mem_ctrls.dram.bytesPerActivate::mean   163.365452                       # Bytes accessed per row activation
system.mem_ctrls.dram.bytesPerActivate::gmean   112.375384                       # Bytes accessed per row activation
system.mem_ctrls.dram.bytesPerActivate::stdev   196.847601                       # Bytes accessed per row activation
system.mem_ctrls.dram.bytesPerActivate::0-127        14248     52.32%     52.32% # Bytes accessed per row activation
system.mem_ctrls.dram.bytesPerActivate::128-255         8523     31.30%     83.62% # Bytes accessed per row activation
system.mem_ctrls.dram.bytesPerActivate::256-383         1333      4.89%     88.51% # Bytes accessed per row activation
system.mem_ctrls.dram.bytesPerActivate::384-511         1144      4.20%     92.71% # Bytes accessed per row activation
system.mem_ctrls.dram.bytesPerActivate::512-639          738      2.71%     95.42% # Bytes accessed per row activation
system.mem_ctrls.dram.bytesPerActivate::640-767          234      0.86%     96.28% # Bytes accessed per row activation
system.mem_ctrls.dram.bytesPerActivate::768-895          188      0.69%     96.97% # Bytes accessed per row activation
system.mem_ctrls.dram.bytesPerActivate::896-1023          248      0.91%     97.88% # Bytes accessed per row activation
system.mem_ctrls.dram.bytesPerActivate::1024-1151          576      2.12%    100.00% # Bytes accessed per row activation
system.mem_ctrls.dram.bytesPerActivate::total        27232                       # Bytes accessed per row activation
system.mem_ctrls.dram.bytesRead               2771648                       # Total number of bytes read from DRAM
system.mem_ctrls.dram.bytesWritten            1677184                       # Total number of bytes written to DRAM
system.mem_ctrls.dram.avgRdBW               24.751492                       # Average DRAM read bandwidth in MiBytes/s
system.mem_ctrls.dram.avgWrBW               14.977662                       # Average DRAM write bandwidth in MiBytes/s
system.mem_ctrls.dram.peakBW                 12800.00                       # Theoretical peak bandwidth in MiByte/s
system.mem_ctrls.dram.busUtil                    0.31                       # Data bus utilization in percentage
system.mem_ctrls.dram.busUtilRead                0.19                       # Data bus utilization in percentage for reads
system.mem_ctrls.dram.busUtilWrite               0.12                       # Data bus utilization in percentage for writes
system.mem_ctrls.dram.pageHitRate               60.82                       # Row buffer hit rate, read and write combined
system.mem_ctrls.dram.power_state.pwrStateResidencyTicks::UNDEFINED 111979029000                       # Cumulative time (in ticks) in various power states
system.mem_ctrls.dram.rank0.actEnergy        97582380                       # Energy for activate commands per rank (pJ)
system.mem_ctrls.dram.rank0.preEnergy        51862470                       # Energy for precharge commands per rank (pJ)
system.mem_ctrls.dram.rank0.readEnergy      153624240                       # Energy for read commands per rank (pJ)
system.mem_ctrls.dram.rank0.writeEnergy      67755600                       # Energy for write commands per rank (pJ)
system.mem_ctrls.dram.rank0.refreshEnergy 8839137840.000002                       # Energy for refresh commands per rank (pJ)
system.mem_ctrls.dram.rank0.actBackEnergy  22143062460                       # Energy for active background per rank (pJ)
system.mem_ctrls.dram.rank0.preBackEnergy  24353158080                       # Energy for precharge background per rank (pJ)
system.mem_ctrls.dram.rank0.actPowerDownEnergy            0                       # Energy for active power-down per rank (pJ)
system.mem_ctrls.dram.rank0.prePowerDownEnergy            0                       # Energy for precharge power-down per rank (pJ)
system.mem_ctrls.dram.rank0.selfRefreshEnergy            0                       # Energy for self refresh per rank (pJ)
system.mem_ctrls.dram.rank0.totalEnergy   55706183070                       # Total energy per rank (pJ)
system.mem_ctrls.dram.rank0.averagePower   497.469781                       # Core power per rank (mW)
system.mem_ctrls.dram.rank0.totalIdleTime            0                       # Total Idle time Per DRAM Rank
system.mem_ctrls.dram.rank0.pwrStateTime::IDLE  63093967250                       # Time in different power states
system.mem_ctrls.dram.rank0.pwrStateTime::REF   3739060000                       # Time in different power states
system.mem_ctrls.dram.rank0.pwrStateTime::SREF            0                       # Time in different power states
system.mem_ctrls.dram.rank0.pwrStateTime::PRE_PDN            0                       # Time in different power states
system.mem_ctrls.dram.rank0.pwrStateTime::ACT  45146001750                       # Time in different power states
system.mem_ctrls.dram.rank0.pwrStateTime::ACT_PDN            0                       # Time in different power states
system.mem_ctrls.dram.rank1.actEnergy        96861240                       # Energy for activate commands per rank (pJ)
system.mem_ctrls.dram.rank1.preEnergy        51482970                       # Energy for precharge commands per rank (pJ)
system.mem_ctrls.dram.rank1.readEnergy      155587740                       # Energy for read commands per rank (pJ)
system.mem_ctrls.dram.rank1.writeEnergy      69039720                       # Energy for write commands per rank (pJ)
system.mem_ctrls.dram.rank1.refreshEnergy 8839137840.000002                       # Energy for refresh commands per rank (pJ)
system.mem_ctrls.dram.rank1.actBackEnergy  22186235970                       # Energy for active background per rank (pJ)
system.mem_ctrls.dram.rank1.preBackEnergy  24316801440                       # Energy for precharge background per rank (pJ)
system.mem_ctrls.dram.rank1.actPowerDownEnergy            0                       # Energy for active power-down per rank (pJ)
system.mem_ctrls.dram.rank1.prePowerDownEnergy            0                       # Energy for precharge power-down per rank (pJ)
system.mem_ctrls.dram.rank1.selfRefreshEnergy            0                       # Energy for self refresh per rank (pJ)
system.mem_ctrls.dram.rank1.totalEnergy   55715146920                       # Total energy per rank (pJ)
system.mem_ctrls.dram.rank1.averagePower   497.549831                       # Core power per rank (mW)
system.mem_ctrls.dram.rank1.totalIdleTime            0                       # Total Idle time Per DRAM Rank
system.mem_ctrls.dram.rank1.pwrStateTime::IDLE  62997214500                       # Time in different power states
system.mem_ctrls.dram.rank1.pwrStateTime::REF   3739060000                       # Time in different power states
system.mem_ctrls.dram.rank1.pwrStateTime::SREF            0                       # Time in different power states
system.mem_ctrls.dram.rank1.pwrStateTime::PRE_PDN            0                       # Time in different power states
system.mem_ctrls.dram.rank1.pwrStateTime::ACT  45242754500                       # Time in different power states
system.mem_ctrls.dram.rank1.pwrStateTime::ACT_PDN            0                       # Time in different power states
system.mem_ctrls.power_state.pwrStateResidencyTicks::UNDEFINED 111979029000                       # Cumulative time (in ticks) in various power states
system.membus.trans_dist::ReadResp               4522                       # Transaction distribution
system.membus.trans_dist::WritebackDirty        26236                       # Transaction distribution
system.membus.trans_dist::CleanEvict              124                       # Transaction distribution
system.membus.trans_dist::ReadExReq             38792                       # Transaction distribution
system.membus.trans_dist::ReadExResp            38792                       # Transaction distribution
system.membus.trans_dist::ReadSharedReq          4522                       # Transaction distribution
system.membus.pkt_count_system.l2.mem_side_port::system.mem_ctrls.port       112988                       # Packet count per connected requestor and responder (bytes)
system.membus.pkt_count::total                 112988                       # Packet count per connected requestor and responder (bytes)
system.membus.pkt_size_system.l2.mem_side_port::system.mem_ctrls.port      4451200                       # Cumulative packet size per connected requestor and responder (bytes)
system.membus.pkt_size::total                 4451200                       # Cumulative packet size per connected requestor and responder (bytes)
system.membus.snoops                                0                       # Total snoops (count)
system.membus.snoopTraffic                          0                       # Total snoop traffic (bytes)
system.membus.snoop_fanout::samples             43314                       # Request fanout histogram
system.membus.snoop_fanout::mean                    0                       # Request fanout histogram
system.membus.snoop_fanout::stdev                   0                       # Request fanout histogram
system.membus.snoop_fanout::underflows              0      0.00%      0.00% # Request fanout histogram
system.membus.snoop_fanout::0                   43314    100.00%    100.00% # Request fanout histogram
system.membus.snoop_fanout::1                       0      0.00%    100.00% # Request fanout histogram
system.membus.snoop_fanout::overflows               0      0.00%    100.00% # Request fanout histogram
system.membus.snoop_fanout::min_value               0                       # Request fanout histogram
system.membus.snoop_fanout::max_value               0                       # Request fanout histogram
system.membus.snoop_fanout::total               43314                       # Request fanout histogram
system.membus.power_state.pwrStateResidencyTicks::UNDEFINED 111979029000                       # Cumulative time (in ticks) in various power states
system.membus.reqLayer0.occupancy           174618000                       # Layer occupancy (ticks)
system.membus.reqLayer0.utilization               0.2                       # Layer utilization (%)
system.membus.respLayer1.occupancy          232713250                       # Layer occupancy (ticks)
system.membus.respLayer1.utilization              0.2                       # Layer utilization (%)
system.tol2bus.trans_dist::ReadResp             12465                       # Transaction distribution
system.tol2bus.trans_dist::WritebackDirty        73377                       # Transaction distribution
system.tol2bus.trans_dist::WritebackClean            5                       # Transaction distribution
system.tol2bus.trans_dist::CleanEvict            2550                       # Transaction distribution
system.tol2bus.trans_dist::ReadExReq            38804                       # Transaction distribution
system.tol2bus.trans_dist::ReadExResp           38804                       # Transaction distribution
system.tol2bus.trans_dist::ReadCleanReq           525                       # Transaction distribution
system.tol2bus.trans_dist::ReadSharedReq        11940                       # Transaction distribution
system.tol2bus.pkt_count_system.cpu.icache.mem_side_port::system.l2.cpu_side_port         1055                       # Packet count per connected requestor and responder (bytes)
system.tol2bus.pkt_count_system.cpu.dcache.mem_side_port::system.l2.cpu_side_port       150184                       # Packet count per connected requestor and responder (bytes)
system.tol2bus.pkt_count::total                151239                       # Packet count per connected requestor and responder (bytes)
system.tol2bus.pkt_size_system.cpu.icache.mem_side_port::system.l2.cpu_side_port        33920                       # Cumulative packet size per connected requestor and responder (bytes)
system.tol2bus.pkt_size_system.cpu.dcache.mem_side_port::system.l2.cpu_side_port      6264640                       # Cumulative packet size per connected requestor and responder (bytes)
system.tol2bus.pkt_size::total                6298560                       # Cumulative packet size per connected requestor and responder (bytes)
system.tol2bus.snoops                           27231                       # Total snoops (count)
system.tol2bus.snoopTraffic                   1679104                       # Total snoop traffic (bytes)
system.tol2bus.snoop_fanout::samples            78500                       # Request fanout histogram
system.tol2bus.snoop_fanout::mean            0.012178                       # Request fanout histogram
system.tol2bus.snoop_fanout::stdev           0.110261                       # Request fanout histogram
system.tol2bus.snoop_fanout::underflows             0      0.00%      0.00% # Request fanout histogram
system.tol2bus.snoop_fanout::0                  77549     98.79%     98.79% # Request fanout histogram
system.tol2bus.snoop_fanout::1                    946      1.21%     99.99% # Request fanout histogram
system.tol2bus.snoop_fanout::2                      5      0.01%    100.00% # Request fanout histogram
system.tol2bus.snoop_fanout::overflows              0      0.00%    100.00% # Request fanout histogram
system.tol2bus.snoop_fanout::min_value              0                       # Request fanout histogram
system.tol2bus.snoop_fanout::max_value              2                       # Request fanout histogram
system.tol2bus.snoop_fanout::total              78500                       # Request fanout histogram
system.tol2bus.power_state.pwrStateResidencyTicks::UNDEFINED 111979029000                       # Cumulative time (in ticks) in various power states
system.tol2bus.reqLayer0.occupancy          194262000                       # Layer occupancy (ticks)
system.tol2bus.reqLayer0.utilization              0.2                       # Layer utilization (%)
system.tol2bus.respLayer0.occupancy           1575000                       # Layer occupancy (ticks)
system.tol2bus.respLayer0.utilization             0.0                       # Layer utilization (%)
system.tol2bus.respLayer1.occupancy         152236995                       # Layer occupancy (ticks)
system.tol2bus.respLayer1.utilization             0.1                       # Layer utilization (%)
system.voltage_domain.voltage                       1                       # Voltage in Volts

---------- End Simulation Statistics   ----------
