
---------- Begin Simulation Statistics ----------
final_tick                               119797116000                       # Number of ticks from beginning of simulation (restored from checkpoints and never reset)
host_inst_rate                                 130797                       # Simulator instruction rate (inst/s)
host_mem_usage                                 659964                       # Number of bytes of host memory used
host_op_rate                                   143122                       # Simulator op (including micro ops) rate (op/s)
host_seconds                                   764.54                       # Real time elapsed on the host
host_tick_rate                              156690944                       # Simulator tick rate (ticks/s)
sim_freq                                 1000000000000                       # Frequency of simulated ticks
sim_insts                                   100000000                       # Number of instructions simulated
sim_ops                                     109423148                       # Number of ops (including micro ops) simulated
sim_seconds                                  0.119797                       # Number of seconds simulated
sim_ticks                                119797116000                       # Number of ticks simulated
system.cpu.committedInsts                   100000000                       # Number of instructions committed
system.cpu.committedOps                     109423148                       # Number of ops (including micro ops) committed
system.cpu.cpi                               1.197971                       # CPI: cycles per instruction
system.cpu.discardedOps                        460251                       # Number of ops (including micro ops) which were discarded before commit
system.cpu.idleCycles                         9089628                       # Total number of cycles that the object has spent stopped
system.cpu.ipc                               0.834745                       # IPC: instructions per cycle
system.cpu.numCycles                        119797116                       # number of cpu cycles simulated
system.cpu.numFetchSuspends                         0                       # Number of times Execute suspended instruction fetching
system.cpu.numWorkItemsCompleted                    0                       # number of work items this cpu completed
system.cpu.numWorkItemsStarted                      0                       # number of work items this cpu started
system.cpu.op_class_0::No_OpClass                   0      0.00%      0.00% # Class of committed instruction
system.cpu.op_class_0::IntAlu                72978377     66.69%     66.69% # Class of committed instruction
system.cpu.op_class_0::IntMult                 567877      0.52%     67.21% # Class of committed instruction
system.cpu.op_class_0::IntDiv                       0      0.00%     67.21% # Class of committed instruction
system.cpu.op_class_0::FloatAdd                     0      0.00%     67.21% # Class of committed instruction
system.cpu.op_class_0::FloatCmp                     0      0.00%     67.21% # Class of committed instruction
system.cpu.op_class_0::FloatCvt                     0      0.00%     67.21% # Class of committed instruction
system.cpu.op_class_0::FloatMult                    0      0.00%     67.21% # Class of committed instruction
system.cpu.op_class_0::FloatMultAcc                 0      0.00%     67.21% # Class of committed instruction
system.cpu.op_class_0::FloatDiv                     0      0.00%     67.21% # Class of committed instruction
system.cpu.op_class_0::FloatMisc                    0      0.00%     67.21% # Class of committed instruction
system.cpu.op_class_0::FloatSqrt                    0      0.00%     67.21% # Class of committed instruction
system.cpu.op_class_0::SimdAdd                 241132      0.22%     67.43% # Class of committed instruction
system.cpu.op_class_0::SimdAddAcc                   0      0.00%     67.43% # Class of committed instruction
system.cpu.op_class_0::SimdAlu                 154494      0.14%     67.57% # Class of committed instruction
system.cpu.op_class_0::SimdCmp                 120566      0.11%     67.68% # Class of committed instruction
system.cpu.op_class_0::SimdCvt                      0      0.00%     67.68% # Class of committed instruction
system.cpu.op_class_0::SimdMisc                 44506      0.04%     67.73% # Class of committed instruction
system.cpu.op_class_0::SimdMult                     0      0.00%     67.73% # Class of committed instruction
system.cpu.op_class_0::SimdMultAcc                  0      0.00%     67.73% # Class of committed instruction
system.cpu.op_class_0::SimdShift                    0      0.00%     67.73% # Class of committed instruction
system.cpu.op_class_0::SimdShiftAcc                 0      0.00%     67.73% # Class of committed instruction
system.cpu.op_class_0::SimdDiv                      0      0.00%     67.73% # Class of committed instruction
system.cpu.op_class_0::SimdSqrt                     0      0.00%     67.73% # Class of committed instruction
system.cpu.op_class_0::SimdFloatAdd                 0      0.00%     67.73% # Class of committed instruction
system.cpu.op_class_0::SimdFloatAlu                 0      0.00%     67.73% # Class of committed instruction
system.cpu.op_class_0::SimdFloatCmp                 0      0.00%     67.73% # Class of committed instruction
system.cpu.op_class_0::SimdFloatCvt                 0      0.00%     67.73% # Class of committed instruction
system.cpu.op_class_0::SimdFloatDiv                 0      0.00%     67.73% # Class of committed instruction
system.cpu.op_class_0::SimdFloatMisc           166276      0.15%     67.88% # Class of committed instruction
system.cpu.op_class_0::SimdFloatMult                0      0.00%     67.88% # Class of committed instruction
system.cpu.op_class_0::SimdFloatMultAcc             0      0.00%     67.88% # Class of committed instruction
system.cpu.op_class_0::SimdFloatSqrt                0      0.00%     67.88% # Class of committed instruction
system.cpu.op_class_0::SimdReduceAdd                0      0.00%     67.88% # Class of committed instruction
system.cpu.op_class_0::SimdReduceAlu                0      0.00%     67.88% # Class of committed instruction
system.cpu.op_class_0::SimdReduceCmp                0      0.00%     67.88% # Class of committed instruction
system.cpu.op_class_0::SimdFloatReduceAdd            0      0.00%     67.88% # Class of committed instruction
system.cpu.op_class_0::SimdFloatReduceCmp            0      0.00%     67.88% # Class of committed instruction
system.cpu.op_class_0::SimdAes                      0      0.00%     67.88% # Class of committed instruction
system.cpu.op_class_0::SimdAesMix                   0      0.00%     67.88% # Class of committed instruction
system.cpu.op_class_0::SimdSha1Hash                 0      0.00%     67.88% # Class of committed instruction
system.cpu.op_class_0::SimdSha1Hash2                0      0.00%     67.88% # Class of committed instruction
system.cpu.op_class_0::SimdSha256Hash               0      0.00%     67.88% # Class of committed instruction
system.cpu.op_class_0::SimdSha256Hash2              0      0.00%     67.88% # Class of committed instruction
system.cpu.op_class_0::SimdShaSigma2                0      0.00%     67.88% # Class of committed instruction
system.cpu.op_class_0::SimdShaSigma3                0      0.00%     67.88% # Class of committed instruction
system.cpu.op_class_0::SimdPredAlu                  0      0.00%     67.88% # Class of committed instruction
system.cpu.op_class_0::MemRead               20628136     18.85%     86.73% # Class of committed instruction
system.cpu.op_class_0::MemWrite              14521784     13.27%    100.00% # Class of committed instruction
system.cpu.op_class_0::FloatMemRead                 0      0.00%    100.00% # Class of committed instruction
system.cpu.op_class_0::FloatMemWrite                0      0.00%    100.00% # Class of committed instruction
system.cpu.op_class_0::IprAccess                    0      0.00%    100.00% # Class of committed instruction
system.cpu.op_class_0::InstPrefetch                 0      0.00%    100.00% # Class of committed instruction
system.cpu.op_class_0::total                109423148                       # Class of committed instruction
system.cpu.tickCycles                       110707488                       # Number of cycles that the object actually ticked
system.cpu.workload.numSyscalls                    87                       # Number of system calls
system.membus.snoop_filter.hit_multi_requests            0                       # Number of requests hitting in the snoop filter with multiple (>1) holders of the requested data.
system.membus.snoop_filter.hit_multi_snoops            0                       # Number of snoops hitting in the snoop filter with multiple (>1) holders of the requested data.
system.membus.snoop_filter.hit_single_requests        37840                       # Number of requests hitting in the snoop filter with a single holder of the requested data.
system.membus.snoop_filter.hit_single_snoops            0                       # Number of snoops hitting in the snoop filter with a single holder of the requested data.
system.membus.snoop_filter.tot_requests         84365                       # Total number of requests made to the snoop filter.
system.membus.snoop_filter.tot_snoops               0                       # Total number of snoops made to the snoop filter.
system.tol2bus.snoop_filter.hit_multi_requests          829                       # Number of requests hitting in the snoop filter with multiple (>1) holders of the requested data.
system.tol2bus.snoop_filter.hit_multi_snoops            6                       # Number of snoops hitting in the snoop filter with multiple (>1) holders of the requested data.
system.tol2bus.snoop_filter.hit_single_requests       360589                       # Number of requests hitting in the snoop filter with a single holder of the requested data.
system.tol2bus.snoop_filter.hit_single_snoops          969                       # Number of snoops hitting in the snoop filter with a single holder of the requested data.
system.tol2bus.snoop_filter.tot_requests       722699                       # Total number of requests made to the snoop filter.
system.tol2bus.snoop_filter.tot_snoops            975                       # Total number of snoops made to the snoop filter.
system.clk_domain.clock                          1000                       # Clock period in ticks
system.cpu.branchPred.lookups                20399186                       # Number of BP lookups
system.cpu.branchPred.condPredicted          16340856                       # Number of conditional branches predicted
system.cpu.branchPred.condIncorrect             80964                       # Number of conditional branches incorrect
system.cpu.branchPred.BTBLookups              8731972                       # Number of BTB lookups
system.cpu.branchPred.BTBHits                 8730637                       # Number of BTB hits
system.cpu.branchPred.BTBHitPct             99.984711                       # BTB Hit Percentage
system.cpu.branchPred.RASUsed                 1049363                       # Number of times the RAS was used to get a target.
system.cpu.branchPred.RASIncorrect                324                       # Number of incorrect RAS predictions.
system.cpu.branchPred.indirectLookups          433673                       # Number of indirect predictor lookups.
system.cpu.branchPred.indirectHits             299763                       # Number of indirect target hits.
system.cpu.branchPred.indirectMisses           133910                       # Number of indirect misses.
system.cpu.branchPred.indirectMispredicted         1037                       # Number of mispredicted indirect branches.
system.cpu.dcache.demand_hits::.cpu.data     35522590                       # number of demand (read+write) hits
system.cpu.dcache.demand_hits::total         35522590                       # number of demand (read+write) hits
system.cpu.dcache.overall_hits::.cpu.data     35525866                       # number of overall hits
system.cpu.dcache.overall_hits::total        35525866                       # number of overall hits
system.cpu.dcache.demand_misses::.cpu.data       131898                       # number of demand (read+write) misses
system.cpu.dcache.demand_misses::total         131898                       # number of demand (read+write) misses
system.cpu.dcache.overall_misses::.cpu.data       131965                       # number of overall misses
system.cpu.dcache.overall_misses::total        131965                       # number of overall misses
system.cpu.dcache.demand_miss_latency::.cpu.data   8090007000                       # number of demand (read+write) miss cycles
system.cpu.dcache.demand_miss_latency::total   8090007000                       # number of demand (read+write) miss cycles
system.cpu.dcache.overall_miss_latency::.cpu.data   8090007000                       # number of overall miss cycles
system.cpu.dcache.overall_miss_latency::total   8090007000                       # number of overall miss cycles
system.cpu.dcache.demand_accesses::.cpu.data     35654488                       # number of demand (read+write) accesses
system.cpu.dcache.demand_accesses::total     35654488                       # number of demand (read+write) accesses
system.cpu.dcache.overall_accesses::.cpu.data     35657831                       # number of overall (read+write) accesses
system.cpu.dcache.overall_accesses::total     35657831                       # number of overall (read+write) accesses
system.cpu.dcache.demand_miss_rate::.cpu.data     0.003699                       # miss rate for demand accesses
system.cpu.dcache.demand_miss_rate::total     0.003699                       # miss rate for demand accesses
system.cpu.dcache.overall_miss_rate::.cpu.data     0.003701                       # miss rate for overall accesses
system.cpu.dcache.overall_miss_rate::total     0.003701                       # miss rate for overall accesses
system.cpu.dcache.demand_avg_miss_latency::.cpu.data 61335.327298                       # average overall miss latency
system.cpu.dcache.demand_avg_miss_latency::total 61335.327298                       # average overall miss latency
system.cpu.dcache.overall_avg_miss_latency::.cpu.data 61304.186716                       # average overall miss latency
system.cpu.dcache.overall_avg_miss_latency::total 61304.186716                       # average overall miss latency
system.cpu.dcache.blocked_cycles::no_mshrs            0                       # number of cycles access was blocked
system.cpu.dcache.blocked_cycles::no_targets            0                       # number of cycles access was blocked
system.cpu.dcache.blocked::no_mshrs                 0                       # number of cycles access was blocked
system.cpu.dcache.blocked::no_targets               0                       # number of cycles access was blocked
system.cpu.dcache.avg_blocked_cycles::no_mshrs          nan                       # average number of cycles each access was blocked
system.cpu.dcache.avg_blocked_cycles::no_targets          nan                       # average number of cycles each access was blocked
system.cpu.dcache.writebacks::.writebacks        77891                       # number of writebacks
system.cpu.dcache.writebacks::total             77891                       # number of writebacks
system.cpu.dcache.demand_mshr_hits::.cpu.data        25431                       # number of demand (read+write) MSHR hits
system.cpu.dcache.demand_mshr_hits::total        25431                       # number of demand (read+write) MSHR hits
system.cpu.dcache.overall_mshr_hits::.cpu.data        25431                       # number of overall MSHR hits
system.cpu.dcache.overall_mshr_hits::total        25431                       # number of overall MSHR hits
system.cpu.dcache.demand_mshr_misses::.cpu.data       106467                       # number of demand (read+write) MSHR misses
system.cpu.dcache.demand_mshr_misses::total       106467                       # number of demand (read+write) MSHR misses
system.cpu.dcache.overall_mshr_misses::.cpu.data       106530                       # number of overall MSHR misses
system.cpu.dcache.overall_mshr_misses::total       106530                       # number of overall MSHR misses
system.cpu.dcache.demand_mshr_miss_latency::.cpu.data   6416637000                       # number of demand (read+write) MSHR miss cycles
system.cpu.dcache.demand_mshr_miss_latency::total   6416637000                       # number of demand (read+write) MSHR miss cycles
system.cpu.dcache.overall_mshr_miss_latency::.cpu.data   6419632000                       # number of overall MSHR miss cycles
system.cpu.dcache.overall_mshr_miss_latency::total   6419632000                       # number of overall MSHR miss cycles
system.cpu.dcache.demand_mshr_miss_rate::.cpu.data     0.002986                       # mshr miss rate for demand accesses
system.cpu.dcache.demand_mshr_miss_rate::total     0.002986                       # mshr miss rate for demand accesses
system.cpu.dcache.overall_mshr_miss_rate::.cpu.data     0.002988                       # mshr miss rate for overall accesses
system.cpu.dcache.overall_mshr_miss_rate::total     0.002988                       # mshr miss rate for overall accesses
system.cpu.dcache.demand_avg_mshr_miss_latency::.cpu.data 60268.787512                       # average overall mshr miss latency
system.cpu.dcache.demand_avg_mshr_miss_latency::total 60268.787512                       # average overall mshr miss latency
system.cpu.dcache.overall_avg_mshr_miss_latency::.cpu.data 60261.259739                       # average overall mshr miss latency
system.cpu.dcache.overall_avg_mshr_miss_latency::total 60261.259739                       # average overall mshr miss latency
system.cpu.dcache.replacements                 105507                       # number of replacements
system.cpu.dcache.ReadReq_hits::.cpu.data     21343365                       # number of ReadReq hits
system.cpu.dcache.ReadReq_hits::total        21343365                       # number of ReadReq hits
system.cpu.dcache.ReadReq_misses::.cpu.data        69154                       # number of ReadReq misses
system.cpu.dcache.ReadReq_misses::total         69154                       # number of ReadReq misses
system.cpu.dcache.ReadReq_miss_latency::.cpu.data   2491789000                       # number of ReadReq miss cycles
system.cpu.dcache.ReadReq_miss_latency::total   2491789000                       # number of ReadReq miss cycles
system.cpu.dcache.ReadReq_accesses::.cpu.data     21412519                       # number of ReadReq accesses(hits+misses)
system.cpu.dcache.ReadReq_accesses::total     21412519                       # number of ReadReq accesses(hits+misses)
system.cpu.dcache.ReadReq_miss_rate::.cpu.data     0.003230                       # miss rate for ReadReq accesses
system.cpu.dcache.ReadReq_miss_rate::total     0.003230                       # miss rate for ReadReq accesses
system.cpu.dcache.ReadReq_avg_miss_latency::.cpu.data 36032.463776                       # average ReadReq miss latency
system.cpu.dcache.ReadReq_avg_miss_latency::total 36032.463776                       # average ReadReq miss latency
system.cpu.dcache.ReadReq_mshr_hits::.cpu.data         5716                       # number of ReadReq MSHR hits
system.cpu.dcache.ReadReq_mshr_hits::total         5716                       # number of ReadReq MSHR hits
system.cpu.dcache.ReadReq_mshr_misses::.cpu.data        63438                       # number of ReadReq MSHR misses
system.cpu.dcache.ReadReq_mshr_misses::total        63438                       # number of ReadReq MSHR misses
system.cpu.dcache.ReadReq_mshr_miss_latency::.cpu.data   2183746000                       # number of ReadReq MSHR miss cycles
system.cpu.dcache.ReadReq_mshr_miss_latency::total   2183746000                       # number of ReadReq MSHR miss cycles
system.cpu.dcache.ReadReq_mshr_miss_rate::.cpu.data     0.002963                       # mshr miss rate for ReadReq accesses
system.cpu.dcache.ReadReq_mshr_miss_rate::total     0.002963                       # mshr miss rate for ReadReq accesses
system.cpu.dcache.ReadReq_avg_mshr_miss_latency::.cpu.data 34423.310949                       # average ReadReq mshr miss latency
system.cpu.dcache.ReadReq_avg_mshr_miss_latency::total 34423.310949                       # average ReadReq mshr miss latency
system.cpu.dcache.WriteReq_hits::.cpu.data     14179225                       # number of WriteReq hits
system.cpu.dcache.WriteReq_hits::total       14179225                       # number of WriteReq hits
system.cpu.dcache.WriteReq_misses::.cpu.data        62744                       # number of WriteReq misses
system.cpu.dcache.WriteReq_misses::total        62744                       # number of WriteReq misses
system.cpu.dcache.WriteReq_miss_latency::.cpu.data   5598218000                       # number of WriteReq miss cycles
system.cpu.dcache.WriteReq_miss_latency::total   5598218000                       # number of WriteReq miss cycles
system.cpu.dcache.WriteReq_accesses::.cpu.data     14241969                       # number of WriteReq accesses(hits+misses)
system.cpu.dcache.WriteReq_accesses::total     14241969                       # number of WriteReq accesses(hits+misses)
system.cpu.dcache.WriteReq_miss_rate::.cpu.data     0.004406                       # miss rate for WriteReq accesses
system.cpu.dcache.WriteReq_miss_rate::total     0.004406                       # miss rate for WriteReq accesses
system.cpu.dcache.WriteReq_avg_miss_latency::.cpu.data 89223.160780                       # average WriteReq miss latency
system.cpu.dcache.WriteReq_avg_miss_latency::total 89223.160780                       # average WriteReq miss latency
system.cpu.dcache.WriteReq_mshr_hits::.cpu.data        19715                       # number of WriteReq MSHR hits
system.cpu.dcache.WriteReq_mshr_hits::total        19715                       # number of WriteReq MSHR hits
system.cpu.dcache.WriteReq_mshr_misses::.cpu.data        43029                       # number of WriteReq MSHR misses
system.cpu.dcache.WriteReq_mshr_misses::total        43029                       # number of WriteReq MSHR misses
system.cpu.dcache.WriteReq_mshr_miss_latency::.cpu.data   4232891000                       # number of WriteReq MSHR miss cycles
system.cpu.dcache.WriteReq_mshr_miss_latency::total   4232891000                       # number of WriteReq MSHR miss cycles
system.cpu.dcache.WriteReq_mshr_miss_rate::.cpu.data     0.003021                       # mshr miss rate for WriteReq accesses
system.cpu.dcache.WriteReq_mshr_miss_rate::total     0.003021                       # mshr miss rate for WriteReq accesses
system.cpu.dcache.WriteReq_avg_mshr_miss_latency::.cpu.data 98372.981013                       # average WriteReq mshr miss latency
system.cpu.dcache.WriteReq_avg_mshr_miss_latency::total 98372.981013                       # average WriteReq mshr miss latency
system.cpu.dcache.SoftPFReq_hits::.cpu.data         3276                       # number of SoftPFReq hits
system.cpu.dcache.SoftPFReq_hits::total          3276                       # number of SoftPFReq hits
system.cpu.dcache.SoftPFReq_misses::.cpu.data           67                       # number of SoftPFReq misses
system.cpu.dcache.SoftPFReq_misses::total           67                       # number of SoftPFReq misses
system.cpu.dcache.SoftPFReq_accesses::.cpu.data         3343                       # number of SoftPFReq accesses(hits+misses)
system.cpu.dcache.SoftPFReq_accesses::total         3343                       # number of SoftPFReq accesses(hits+misses)
system.cpu.dcache.SoftPFReq_miss_rate::.cpu.data     0.020042                       # miss rate for SoftPFReq accesses
system.cpu.dcache.SoftPFReq_miss_rate::total     0.020042                       # miss rate for SoftPFReq accesses
system.cpu.dcache.SoftPFReq_mshr_misses::.cpu.data           63                       # number of SoftPFReq MSHR misses
system.cpu.dcache.SoftPFReq_mshr_misses::total           63                       # number of SoftPFReq MSHR misses
system.cpu.dcache.SoftPFReq_mshr_miss_latency::.cpu.data      2995000                       # number of SoftPFReq MSHR miss cycles
system.cpu.dcache.SoftPFReq_mshr_miss_latency::total      2995000                       # number of SoftPFReq MSHR miss cycles
system.cpu.dcache.SoftPFReq_mshr_miss_rate::.cpu.data     0.018845                       # mshr miss rate for SoftPFReq accesses
system.cpu.dcache.SoftPFReq_mshr_miss_rate::total     0.018845                       # mshr miss rate for SoftPFReq accesses
system.cpu.dcache.SoftPFReq_avg_mshr_miss_latency::.cpu.data 47539.682540                       # average SoftPFReq mshr miss latency
system.cpu.dcache.SoftPFReq_avg_mshr_miss_latency::total 47539.682540                       # average SoftPFReq mshr miss latency
system.cpu.dcache.LoadLockedReq_hits::.cpu.data        89006                       # number of LoadLockedReq hits
system.cpu.dcache.LoadLockedReq_hits::total        89006                       # number of LoadLockedReq hits
system.cpu.dcache.LoadLockedReq_misses::.cpu.data            1                       # number of LoadLockedReq misses
system.cpu.dcache.LoadLockedReq_misses::total            1                       # number of LoadLockedReq misses
system.cpu.dcache.LoadLockedReq_miss_latency::.cpu.data        54000                       # number of LoadLockedReq miss cycles
system.cpu.dcache.LoadLockedReq_miss_latency::total        54000                       # number of LoadLockedReq miss cycles
system.cpu.dcache.LoadLockedReq_accesses::.cpu.data        89007                       # number of LoadLockedReq accesses(hits+misses)
system.cpu.dcache.LoadLockedReq_accesses::total        89007                       # number of LoadLockedReq accesses(hits+misses)
system.cpu.dcache.LoadLockedReq_miss_rate::.cpu.data     0.000011                       # miss rate for LoadLockedReq accesses
system.cpu.dcache.LoadLockedReq_miss_rate::total     0.000011                       # miss rate for LoadLockedReq accesses
system.cpu.dcache.LoadLockedReq_avg_miss_latency::.cpu.data        54000                       # average LoadLockedReq miss latency
system.cpu.dcache.LoadLockedReq_avg_miss_latency::total        54000                       # average LoadLockedReq miss latency
system.cpu.dcache.LoadLockedReq_mshr_misses::.cpu.data            1                       # number of LoadLockedReq MSHR misses
system.cpu.dcache.LoadLockedReq_mshr_misses::total            1                       # number of LoadLockedReq MSHR misses
system.cpu.dcache.LoadLockedReq_mshr_miss_latency::.cpu.data        52000                       # number of LoadLockedReq MSHR miss cycles
system.cpu.dcache.LoadLockedReq_mshr_miss_latency::total        52000                       # number of LoadLockedReq MSHR miss cycles
system.cpu.dcache.LoadLockedReq_mshr_miss_rate::.cpu.data     0.000011                       # mshr miss rate for LoadLockedReq accesses
system.cpu.dcache.LoadLockedReq_mshr_miss_rate::total     0.000011                       # mshr miss rate for LoadLockedReq accesses
system.cpu.dcache.LoadLockedReq_avg_mshr_miss_latency::.cpu.data        52000                       # average LoadLockedReq mshr miss latency
system.cpu.dcache.LoadLockedReq_avg_mshr_miss_latency::total        52000                       # average LoadLockedReq mshr miss latency
system.cpu.dcache.StoreCondReq_hits::.cpu.data        89006                       # number of StoreCondReq hits
system.cpu.dcache.StoreCondReq_hits::total        89006                       # number of StoreCondReq hits
system.cpu.dcache.StoreCondReq_accesses::.cpu.data        89006                       # number of StoreCondReq accesses(hits+misses)
system.cpu.dcache.StoreCondReq_accesses::total        89006                       # number of StoreCondReq accesses(hits+misses)
system.cpu.dcache.power_state.pwrStateResidencyTicks::UNDEFINED 119797116000                       # Cumulative time (in ticks) in various power states
system.cpu.dcache.tags.tagsinuse          1020.684614                       # Cycle average of tags in use
system.cpu.dcache.tags.total_refs            35810409                       # Total number of references to valid blocks.
system.cpu.dcache.tags.sampled_refs            106531                       # Sample count of references to valid blocks.
system.cpu.dcache.tags.avg_refs            336.150125                       # Average number of references to valid blocks.
system.cpu.dcache.tags.warmup_cycle            223000                       # Cycle when the warmup percentage was hit.
system.cpu.dcache.tags.occ_blocks::.cpu.data  1020.684614                       # Average occupied blocks per requestor
system.cpu.dcache.tags.occ_percent::.cpu.data     0.996762                       # Average percentage of cache occupancy
system.cpu.dcache.tags.occ_percent::total     0.996762                       # Average percentage of cache occupancy
system.cpu.dcache.tags.occ_task_id_blocks::1024         1024                       # Occupied blocks per task id
system.cpu.dcache.tags.age_task_id_blocks_1024::0            5                       # Occupied blocks per task id
system.cpu.dcache.tags.age_task_id_blocks_1024::1           23                       # Occupied blocks per task id
system.cpu.dcache.tags.age_task_id_blocks_1024::2          255                       # Occupied blocks per task id
system.cpu.dcache.tags.age_task_id_blocks_1024::3          741                       # Occupied blocks per task id
system.cpu.dcache.tags.occ_task_id_percent::1024            1                       # Percentage of cache occupancy per task id
system.cpu.dcache.tags.tag_accesses          35942375                       # Number of tag accesses
system.cpu.dcache.tags.data_accesses         35942375                       # Number of data accesses
system.cpu.dcache.tags.power_state.pwrStateResidencyTicks::UNDEFINED 119797116000                       # Cumulative time (in ticks) in various power states
system.cpu.dtb.instHits                             0                       # ITB inst hits
system.cpu.dtb.instMisses                           0                       # ITB inst misses
system.cpu.dtb.readHits                             0                       # DTB read hits
system.cpu.dtb.readMisses                           0                       # DTB read misses
system.cpu.dtb.writeHits                            0                       # DTB write hits
system.cpu.dtb.writeMisses                          0                       # DTB write misses
system.cpu.dtb.inserts                              0                       # Number of times an entry is inserted into the TLB
system.cpu.dtb.flushTlb                             0                       # Number of times complete TLB was flushed
system.cpu.dtb.flushTlbMva                          0                       # Number of times TLB was flushed by MVA
system.cpu.dtb.flushTlbMvaAsid                      0                       # Number of times TLB was flushed by MVA & ASID
system.cpu.dtb.flushTlbAsid                         0                       # Number of times TLB was flushed by ASID
system.cpu.dtb.flushedEntries                       0                       # Number of entries that have been flushed from TLB
system.cpu.dtb.alignFaults                          0                       # Number of TLB faults due to alignment restrictions
system.cpu.dtb.prefetchFaults                       0                       # Number of TLB faults due to prefetch
system.cpu.dtb.domainFaults                         0                       # Number of TLB faults due to domain restrictions
system.cpu.dtb.permsFaults                          0                       # Number of TLB faults due to permissions restrictions
system.cpu.dtb.readAccesses                         0                       # DTB read accesses
system.cpu.dtb.writeAccesses                        0                       # DTB write accesses
system.cpu.dtb.instAccesses                         0                       # ITB inst accesses
system.cpu.dtb.hits                                 0                       # Total TLB (inst and data) hits
system.cpu.dtb.misses                               0                       # Total TLB (inst and data) misses
system.cpu.dtb.accesses                             0                       # Total TLB (inst and data) accesses
system.cpu.dtb.stage2_mmu.stage2_tlb.instHits            0                       # ITB inst hits
system.cpu.dtb.stage2_mmu.stage2_tlb.instMisses            0                       # ITB inst misses
system.cpu.dtb.stage2_mmu.stage2_tlb.readHits            0                       # DTB read hits
system.cpu.dtb.stage2_mmu.stage2_tlb.readMisses            0                       # DTB read misses
system.cpu.dtb.stage2_mmu.stage2_tlb.writeHits            0                       # DTB write hits
system.cpu.dtb.stage2_mmu.stage2_tlb.writeMisses            0                       # DTB write misses
system.cpu.dtb.stage2_mmu.stage2_tlb.inserts            0                       # Number of times an entry is inserted into the TLB
system.cpu.dtb.stage2_mmu.stage2_tlb.flushTlb            0                       # Number of times complete TLB was flushed
system.cpu.dtb.stage2_mmu.stage2_tlb.flushTlbMva            0                       # Number of times TLB was flushed by MVA
system.cpu.dtb.stage2_mmu.stage2_tlb.flushTlbMvaAsid            0                       # Number of times TLB was flushed by MVA & ASID
system.cpu.dtb.stage2_mmu.stage2_tlb.flushTlbAsid            0                       # Number of times TLB was flushed by ASID
system.cpu.dtb.stage2_mmu.stage2_tlb.flushedEntries            0                       # Number of entries that have been flushed from TLB
system.cpu.dtb.stage2_mmu.stage2_tlb.alignFaults            0                       # Number of TLB faults due to alignment restrictions
system.cpu.dtb.stage2_mmu.stage2_tlb.prefetchFaults            0                       # Number of TLB faults due to prefetch
system.cpu.dtb.stage2_mmu.stage2_tlb.domainFaults            0                       # Number of TLB faults due to domain restrictions
system.cpu.dtb.stage2_mmu.stage2_tlb.permsFaults            0                       # Number of TLB faults due to permissions restrictions
system.cpu.dtb.stage2_mmu.stage2_tlb.readAccesses            0                       # DTB read accesses
system.cpu.dtb.stage2_mmu.stage2_tlb.writeAccesses            0                       # DTB write accesses
system.cpu.dtb.stage2_mmu.stage2_tlb.instAccesses            0                       # ITB inst accesses
system.cpu.dtb.stage2_mmu.stage2_tlb.hits            0                       # Total TLB (inst and data) hits
system.cpu.dtb.stage2_mmu.stage2_tlb.misses            0                       # Total TLB (inst and data) misses
system.cpu.dtb.stage2_mmu.stage2_tlb.accesses            0                       # Total TLB (inst and data) accesses
system.cpu.dtb.stage2_mmu.stage2_tlb.walker.walks            0                       # Table walker walks requested
system.cpu.dtb.stage2_mmu.stage2_tlb.walker.requestOrigin_Requested::Data            0                       # Table walker requests started/completed, data/inst
system.cpu.dtb.stage2_mmu.stage2_tlb.walker.requestOrigin_Requested::Inst            0                       # Table walker requests started/completed, data/inst
system.cpu.dtb.stage2_mmu.stage2_tlb.walker.requestOrigin_Requested::total            0                       # Table walker requests started/completed, data/inst
system.cpu.dtb.stage2_mmu.stage2_tlb.walker.requestOrigin_Completed::Data            0                       # Table walker requests started/completed, data/inst
system.cpu.dtb.stage2_mmu.stage2_tlb.walker.requestOrigin_Completed::Inst            0                       # Table walker requests started/completed, data/inst
system.cpu.dtb.stage2_mmu.stage2_tlb.walker.requestOrigin_Completed::total            0                       # Table walker requests started/completed, data/inst
system.cpu.dtb.stage2_mmu.stage2_tlb.walker.requestOrigin::total            0                       # Table walker requests started/completed, data/inst
system.cpu.dtb.stage2_mmu.stage2_tlb.walker.power_state.pwrStateResidencyTicks::UNDEFINED 119797116000                       # Cumulative time (in ticks) in various power states
system.cpu.dtb.walker.walks                         0                       # Table walker walks requested
system.cpu.dtb.walker.requestOrigin_Requested::Data            0                       # Table walker requests started/completed, data/inst
system.cpu.dtb.walker.requestOrigin_Requested::Inst            0                       # Table walker requests started/completed, data/inst
system.cpu.dtb.walker.requestOrigin_Requested::total            0                       # Table walker requests started/completed, data/inst
system.cpu.dtb.walker.requestOrigin_Completed::Data            0                       # Table walker requests started/completed, data/inst
system.cpu.dtb.walker.requestOrigin_Completed::Inst            0                       # Table walker requests started/completed, data/inst
system.cpu.dtb.walker.requestOrigin_Completed::total            0                       # Table walker requests started/completed, data/inst
system.cpu.dtb.walker.requestOrigin::total            0                       # Table walker requests started/completed, data/inst
system.cpu.dtb.walker.power_state.pwrStateResidencyTicks::UNDEFINED 119797116000                       # Cumulative time (in ticks) in various power states
system.cpu.fetch2.intInstructions            49405469                       # Number of integer instructions successfully decoded
system.cpu.fetch2.fpInstructions                    0                       # Number of floating point instructions successfully decoded
system.cpu.fetch2.vecInstructions                   0                       # Number of SIMD instructions successfully decoded
system.cpu.fetch2.loadInstructions           17098705                       # Number of memory load instructions successfully decoded
system.cpu.fetch2.storeInstructions           9762425                       # Number of memory store instructions successfully decoded
system.cpu.fetch2.amoInstructions                   0                       # Number of memory atomic instructions successfully decoded
system.cpu.icache.demand_hits::.cpu.inst     27552408                       # number of demand (read+write) hits
system.cpu.icache.demand_hits::total         27552408                       # number of demand (read+write) hits
system.cpu.icache.overall_hits::.cpu.inst     27552408                       # number of overall hits
system.cpu.icache.overall_hits::total        27552408                       # number of overall hits
system.cpu.icache.demand_misses::.cpu.inst       255584                       # number of demand (read+write) misses
system.cpu.icache.demand_misses::total         255584                       # number of demand (read+write) misses
system.cpu.icache.overall_misses::.cpu.inst       255584                       # number of overall misses
system.cpu.icache.overall_misses::total        255584                       # number of overall misses
system.cpu.icache.demand_miss_latency::.cpu.inst   6685002000                       # number of demand (read+write) miss cycles
system.cpu.icache.demand_miss_latency::total   6685002000                       # number of demand (read+write) miss cycles
system.cpu.icache.overall_miss_latency::.cpu.inst   6685002000                       # number of overall miss cycles
system.cpu.icache.overall_miss_latency::total   6685002000                       # number of overall miss cycles
system.cpu.icache.demand_accesses::.cpu.inst     27807992                       # number of demand (read+write) accesses
system.cpu.icache.demand_accesses::total     27807992                       # number of demand (read+write) accesses
system.cpu.icache.overall_accesses::.cpu.inst     27807992                       # number of overall (read+write) accesses
system.cpu.icache.overall_accesses::total     27807992                       # number of overall (read+write) accesses
system.cpu.icache.demand_miss_rate::.cpu.inst     0.009191                       # miss rate for demand accesses
system.cpu.icache.demand_miss_rate::total     0.009191                       # miss rate for demand accesses
system.cpu.icache.overall_miss_rate::.cpu.inst     0.009191                       # miss rate for overall accesses
system.cpu.icache.overall_miss_rate::total     0.009191                       # miss rate for overall accesses
system.cpu.icache.demand_avg_miss_latency::.cpu.inst 26155.792225                       # average overall miss latency
system.cpu.icache.demand_avg_miss_latency::total 26155.792225                       # average overall miss latency
system.cpu.icache.overall_avg_miss_latency::.cpu.inst 26155.792225                       # average overall miss latency
system.cpu.icache.overall_avg_miss_latency::total 26155.792225                       # average overall miss latency
system.cpu.icache.blocked_cycles::no_mshrs            0                       # number of cycles access was blocked
system.cpu.icache.blocked_cycles::no_targets            0                       # number of cycles access was blocked
system.cpu.icache.blocked::no_mshrs                 0                       # number of cycles access was blocked
system.cpu.icache.blocked::no_targets               0                       # number of cycles access was blocked
system.cpu.icache.avg_blocked_cycles::no_mshrs          nan                       # average number of cycles each access was blocked
system.cpu.icache.avg_blocked_cycles::no_targets          nan                       # average number of cycles each access was blocked
system.cpu.icache.writebacks::.writebacks       255077                       # number of writebacks
system.cpu.icache.writebacks::total            255077                       # number of writebacks
system.cpu.icache.demand_mshr_misses::.cpu.inst       255584                       # number of demand (read+write) MSHR misses
system.cpu.icache.demand_mshr_misses::total       255584                       # number of demand (read+write) MSHR misses
system.cpu.icache.overall_mshr_misses::.cpu.inst       255584                       # number of overall MSHR misses
system.cpu.icache.overall_mshr_misses::total       255584                       # number of overall MSHR misses
system.cpu.icache.demand_mshr_miss_latency::.cpu.inst   6173834000                       # number of demand (read+write) MSHR miss cycles
system.cpu.icache.demand_mshr_miss_latency::total   6173834000                       # number of demand (read+write) MSHR miss cycles
system.cpu.icache.overall_mshr_miss_latency::.cpu.inst   6173834000                       # number of overall MSHR miss cycles
system.cpu.icache.overall_mshr_miss_latency::total   6173834000                       # number of overall MSHR miss cycles
system.cpu.icache.demand_mshr_miss_rate::.cpu.inst     0.009191                       # mshr miss rate for demand accesses
system.cpu.icache.demand_mshr_miss_rate::total     0.009191                       # mshr miss rate for demand accesses
system.cpu.icache.overall_mshr_miss_rate::.cpu.inst     0.009191                       # mshr miss rate for overall accesses
system.cpu.icache.overall_mshr_miss_rate::total     0.009191                       # mshr miss rate for overall accesses
system.cpu.icache.demand_avg_mshr_miss_latency::.cpu.inst 24155.792225                       # average overall mshr miss latency
system.cpu.icache.demand_avg_mshr_miss_latency::total 24155.792225                       # average overall mshr miss latency
system.cpu.icache.overall_avg_mshr_miss_latency::.cpu.inst 24155.792225                       # average overall mshr miss latency
system.cpu.icache.overall_avg_mshr_miss_latency::total 24155.792225                       # average overall mshr miss latency
system.cpu.icache.replacements                 255077                       # number of replacements
system.cpu.icache.ReadReq_hits::.cpu.inst     27552408                       # number of ReadReq hits
system.cpu.icache.ReadReq_hits::total        27552408                       # number of ReadReq hits
system.cpu.icache.ReadReq_misses::.cpu.inst       255584                       # number of ReadReq misses
system.cpu.icache.ReadReq_misses::total        255584                       # number of ReadReq misses
system.cpu.icache.ReadReq_miss_latency::.cpu.inst   6685002000                       # number of ReadReq miss cycles
system.cpu.icache.ReadReq_miss_latency::total   6685002000                       # number of ReadReq miss cycles
system.cpu.icache.ReadReq_accesses::.cpu.inst     27807992                       # number of ReadReq accesses(hits+misses)
system.cpu.icache.ReadReq_accesses::total     27807992                       # number of ReadReq accesses(hits+misses)
system.cpu.icache.ReadReq_miss_rate::.cpu.inst     0.009191                       # miss rate for ReadReq accesses
system.cpu.icache.ReadReq_miss_rate::total     0.009191                       # miss rate for ReadReq accesses
system.cpu.icache.ReadReq_avg_miss_latency::.cpu.inst 26155.792225                       # average ReadReq miss latency
system.cpu.icache.ReadReq_avg_miss_latency::total 26155.792225                       # average ReadReq miss latency
system.cpu.icache.ReadReq_mshr_misses::.cpu.inst       255584                       # number of ReadReq MSHR misses
system.cpu.icache.ReadReq_mshr_misses::total       255584                       # number of ReadReq MSHR misses
system.cpu.icache.ReadReq_mshr_miss_latency::.cpu.inst   6173834000                       # number of ReadReq MSHR miss cycles
system.cpu.icache.ReadReq_mshr_miss_latency::total   6173834000                       # number of ReadReq MSHR miss cycles
system.cpu.icache.ReadReq_mshr_miss_rate::.cpu.inst     0.009191                       # mshr miss rate for ReadReq accesses
system.cpu.icache.ReadReq_mshr_miss_rate::total     0.009191                       # mshr miss rate for ReadReq accesses
system.cpu.icache.ReadReq_avg_mshr_miss_latency::.cpu.inst 24155.792225                       # average ReadReq mshr miss latency
system.cpu.icache.ReadReq_avg_mshr_miss_latency::total 24155.792225                       # average ReadReq mshr miss latency
system.cpu.icache.power_state.pwrStateResidencyTicks::UNDEFINED 119797116000                       # Cumulative time (in ticks) in various power states
system.cpu.icache.tags.tagsinuse           506.003651                       # Cycle average of tags in use
system.cpu.icache.tags.total_refs            27807992                       # Total number of references to valid blocks.
system.cpu.icache.tags.sampled_refs            255584                       # Sample count of references to valid blocks.
system.cpu.icache.tags.avg_refs            108.801772                       # Average number of references to valid blocks.
system.cpu.icache.tags.warmup_cycle            108000                       # Cycle when the warmup percentage was hit.
system.cpu.icache.tags.occ_blocks::.cpu.inst   506.003651                       # Average occupied blocks per requestor
system.cpu.icache.tags.occ_percent::.cpu.inst     0.247072                       # Average percentage of cache occupancy
system.cpu.icache.tags.occ_percent::total     0.247072                       # Average percentage of cache occupancy
system.cpu.icache.tags.occ_task_id_blocks::1024          507                       # Occupied blocks per task id
system.cpu.icache.tags.age_task_id_blocks_1024::0            1                       # Occupied blocks per task id
system.cpu.icache.tags.age_task_id_blocks_1024::3            2                       # Occupied blocks per task id
system.cpu.icache.tags.age_task_id_blocks_1024::4          504                       # Occupied blocks per task id
system.cpu.icache.tags.occ_task_id_percent::1024     0.247559                       # Percentage of cache occupancy per task id
system.cpu.icache.tags.tag_accesses          28063576                       # Number of tag accesses
system.cpu.icache.tags.data_accesses         28063576                       # Number of data accesses
system.cpu.icache.tags.power_state.pwrStateResidencyTicks::UNDEFINED 119797116000                       # Cumulative time (in ticks) in various power states
system.cpu.itb.instHits                             0                       # ITB inst hits
system.cpu.itb.instMisses                           0                       # ITB inst misses
system.cpu.itb.readHits                             0                       # DTB read hits
system.cpu.itb.readMisses                           0                       # DTB read misses
system.cpu.itb.writeHits                            0                       # DTB write hits
system.cpu.itb.writeMisses                          0                       # DTB write misses
system.cpu.itb.inserts                              0                       # Number of times an entry is inserted into the TLB
system.cpu.itb.flushTlb                             0                       # Number of times complete TLB was flushed
system.cpu.itb.flushTlbMva                          0                       # Number of times TLB was flushed by MVA
system.cpu.itb.flushTlbMvaAsid                      0                       # Number of times TLB was flushed by MVA & ASID
system.cpu.itb.flushTlbAsid                         0                       # Number of times TLB was flushed by ASID
system.cpu.itb.flushedEntries                       0                       # Number of entries that have been flushed from TLB
system.cpu.itb.alignFaults                          0                       # Number of TLB faults due to alignment restrictions
system.cpu.itb.prefetchFaults                       0                       # Number of TLB faults due to prefetch
system.cpu.itb.domainFaults                         0                       # Number of TLB faults due to domain restrictions
system.cpu.itb.permsFaults                          0                       # Number of TLB faults due to permissions restrictions
system.cpu.itb.readAccesses                         0                       # DTB read accesses
system.cpu.itb.writeAccesses                        0                       # DTB write accesses
system.cpu.itb.instAccesses                         0                       # ITB inst accesses
system.cpu.itb.hits                                 0                       # Total TLB (inst and data) hits
system.cpu.itb.misses                               0                       # Total TLB (inst and data) misses
system.cpu.itb.accesses                             0                       # Total TLB (inst and data) accesses
system.cpu.itb.stage2_mmu.stage2_tlb.instHits            0                       # ITB inst hits
system.cpu.itb.stage2_mmu.stage2_tlb.instMisses            0                       # ITB inst misses
system.cpu.itb.stage2_mmu.stage2_tlb.readHits            0                       # DTB read hits
system.cpu.itb.stage2_mmu.stage2_tlb.readMisses            0                       # DTB read misses
system.cpu.itb.stage2_mmu.stage2_tlb.writeHits            0                       # DTB write hits
system.cpu.itb.stage2_mmu.stage2_tlb.writeMisses            0                       # DTB write misses
system.cpu.itb.stage2_mmu.stage2_tlb.inserts            0                       # Number of times an entry is inserted into the TLB
system.cpu.itb.stage2_mmu.stage2_tlb.flushTlb            0                       # Number of times complete TLB was flushed
system.cpu.itb.stage2_mmu.stage2_tlb.flushTlbMva            0                       # Number of times TLB was flushed by MVA
system.cpu.itb.stage2_mmu.stage2_tlb.flushTlbMvaAsid            0                       # Number of times TLB was flushed by MVA & ASID
system.cpu.itb.stage2_mmu.stage2_tlb.flushTlbAsid            0                       # Number of times TLB was flushed by ASID
system.cpu.itb.stage2_mmu.stage2_tlb.flushedEntries            0                       # Number of entries that have been flushed from TLB
system.cpu.itb.stage2_mmu.stage2_tlb.alignFaults            0                       # Number of TLB faults due to alignment restrictions
system.cpu.itb.stage2_mmu.stage2_tlb.prefetchFaults            0                       # Number of TLB faults due to prefetch
system.cpu.itb.stage2_mmu.stage2_tlb.domainFaults            0                       # Number of TLB faults due to domain restrictions
system.cpu.itb.stage2_mmu.stage2_tlb.permsFaults            0                       # Number of TLB faults due to permissions restrictions
system.cpu.itb.stage2_mmu.stage2_tlb.readAccesses            0                       # DTB read accesses
system.cpu.itb.stage2_mmu.stage2_tlb.writeAccesses            0                       # DTB write accesses
system.cpu.itb.stage2_mmu.stage2_tlb.instAccesses            0                       # ITB inst accesses
system.cpu.itb.stage2_mmu.stage2_tlb.hits            0                       # Total TLB (inst and data) hits
system.cpu.itb.stage2_mmu.stage2_tlb.misses            0                       # Total TLB (inst and data) misses
system.cpu.itb.stage2_mmu.stage2_tlb.accesses            0                       # Total TLB (inst and data) accesses
system.cpu.itb.stage2_mmu.stage2_tlb.walker.walks            0                       # Table walker walks requested
system.cpu.itb.stage2_mmu.stage2_tlb.walker.requestOrigin_Requested::Data            0                       # Table walker requests started/completed, data/inst
system.cpu.itb.stage2_mmu.stage2_tlb.walker.requestOrigin_Requested::Inst            0                       # Table walker requests started/completed, data/inst
system.cpu.itb.stage2_mmu.stage2_tlb.walker.requestOrigin_Requested::total            0                       # Table walker requests started/completed, data/inst
system.cpu.itb.stage2_mmu.stage2_tlb.walker.requestOrigin_Completed::Data            0                       # Table walker requests started/completed, data/inst
system.cpu.itb.stage2_mmu.stage2_tlb.walker.requestOrigin_Completed::Inst            0                       # Table walker requests started/completed, data/inst
system.cpu.itb.stage2_mmu.stage2_tlb.walker.requestOrigin_Completed::total            0                       # Table walker requests started/completed, data/inst
system.cpu.itb.stage2_mmu.stage2_tlb.walker.requestOrigin::total            0                       # Table walker requests started/completed, data/inst
system.cpu.itb.stage2_mmu.stage2_tlb.walker.power_state.pwrStateResidencyTicks::UNDEFINED 119797116000                       # Cumulative time (in ticks) in various power states
system.cpu.itb.walker.walks                         0                       # Table walker walks requested
system.cpu.itb.walker.requestOrigin_Requested::Data            0                       # Table walker requests started/completed, data/inst
system.cpu.itb.walker.requestOrigin_Requested::Inst            0                       # Table walker requests started/completed, data/inst
system.cpu.itb.walker.requestOrigin_Requested::total            0                       # Table walker requests started/completed, data/inst
system.cpu.itb.walker.requestOrigin_Completed::Data            0                       # Table walker requests started/completed, data/inst
system.cpu.itb.walker.requestOrigin_Completed::Inst            0                       # Table walker requests started/completed, data/inst
system.cpu.itb.walker.requestOrigin_Completed::total            0                       # Table walker requests started/completed, data/inst
system.cpu.itb.walker.requestOrigin::total            0                       # Table walker requests started/completed, data/inst
system.cpu.itb.walker.power_state.pwrStateResidencyTicks::UNDEFINED 119797116000                       # Cumulative time (in ticks) in various power states
system.cpu.power_state.pwrStateResidencyTicks::ON 119797116000                       # Cumulative time (in ticks) in various power states
system.cpu.thread_0.numInsts                100000000                       # Number of Instructions committed
system.cpu.thread_0.numOps                  109423148                       # Number of Ops committed
system.cpu.thread_0.numMemRefs                      0                       # Number of Memory References
system.cpu_clk_domain.clock                      1000                       # Clock period in ticks
system.cpu_voltage_domain.voltage                   1                       # Voltage in Volts
system.l2.demand_hits::.cpu.inst               255066                       # number of demand (read+write) hits
system.l2.demand_hits::.cpu.data                60513                       # number of demand (read+write) hits
system.l2.demand_hits::total                   315579                       # number of demand (read+write) hits
system.l2.overall_hits::.cpu.inst              255066                       # number of overall hits
system.l2.overall_hits::.cpu.data               60513                       # number of overall hits
system.l2.overall_hits::total                  315579                       # number of overall hits
system.l2.demand_misses::.cpu.inst                518                       # number of demand (read+write) misses
system.l2.demand_misses::.cpu.data              46018                       # number of demand (read+write) misses
system.l2.demand_misses::total                  46536                       # number of demand (read+write) misses
system.l2.overall_misses::.cpu.inst               518                       # number of overall misses
system.l2.overall_misses::.cpu.data             46018                       # number of overall misses
system.l2.overall_misses::total                 46536                       # number of overall misses
system.l2.demand_miss_latency::.cpu.inst     50679000                       # number of demand (read+write) miss cycles
system.l2.demand_miss_latency::.cpu.data   4792254000                       # number of demand (read+write) miss cycles
system.l2.demand_miss_latency::total       4842933000                       # number of demand (read+write) miss cycles
system.l2.overall_miss_latency::.cpu.inst     50679000                       # number of overall miss cycles
system.l2.overall_miss_latency::.cpu.data   4792254000                       # number of overall miss cycles
system.l2.overall_miss_latency::total      4842933000                       # number of overall miss cycles
system.l2.demand_accesses::.cpu.inst           255584                       # number of demand (read+write) accesses
system.l2.demand_accesses::.cpu.data           106531                       # number of demand (read+write) accesses
system.l2.demand_accesses::total               362115                       # number of demand (read+write) accesses
system.l2.overall_accesses::.cpu.inst          255584                       # number of overall (read+write) accesses
system.l2.overall_accesses::.cpu.data          106531                       # number of overall (read+write) accesses
system.l2.overall_accesses::total              362115                       # number of overall (read+write) accesses
system.l2.demand_miss_rate::.cpu.inst        0.002027                       # miss rate for demand accesses
system.l2.demand_miss_rate::.cpu.data        0.431968                       # miss rate for demand accesses
system.l2.demand_miss_rate::total            0.128512                       # miss rate for demand accesses
system.l2.overall_miss_rate::.cpu.inst       0.002027                       # miss rate for overall accesses
system.l2.overall_miss_rate::.cpu.data       0.431968                       # miss rate for overall accesses
system.l2.overall_miss_rate::total           0.128512                       # miss rate for overall accesses
system.l2.demand_avg_miss_latency::.cpu.inst 97835.907336                       # average overall miss latency
system.l2.demand_avg_miss_latency::.cpu.data 104138.684862                       # average overall miss latency
system.l2.demand_avg_miss_latency::total 104068.527592                       # average overall miss latency
system.l2.overall_avg_miss_latency::.cpu.inst 97835.907336                       # average overall miss latency
system.l2.overall_avg_miss_latency::.cpu.data 104138.684862                       # average overall miss latency
system.l2.overall_avg_miss_latency::total 104068.527592                       # average overall miss latency
system.l2.blocked_cycles::no_mshrs                  0                       # number of cycles access was blocked
system.l2.blocked_cycles::no_targets                0                       # number of cycles access was blocked
system.l2.blocked::no_mshrs                         0                       # number of cycles access was blocked
system.l2.blocked::no_targets                       0                       # number of cycles access was blocked
system.l2.avg_blocked_cycles::no_mshrs            nan                       # average number of cycles each access was blocked
system.l2.avg_blocked_cycles::no_targets          nan                       # average number of cycles each access was blocked
system.l2.writebacks::.writebacks               37629                       # number of writebacks
system.l2.writebacks::total                     37629                       # number of writebacks
system.l2.demand_mshr_hits::.cpu.data               5                       # number of demand (read+write) MSHR hits
system.l2.demand_mshr_hits::total                   5                       # number of demand (read+write) MSHR hits
system.l2.overall_mshr_hits::.cpu.data              5                       # number of overall MSHR hits
system.l2.overall_mshr_hits::total                  5                       # number of overall MSHR hits
system.l2.demand_mshr_misses::.cpu.inst           518                       # number of demand (read+write) MSHR misses
system.l2.demand_mshr_misses::.cpu.data         46013                       # number of demand (read+write) MSHR misses
system.l2.demand_mshr_misses::total             46531                       # number of demand (read+write) MSHR misses
system.l2.overall_mshr_misses::.cpu.inst          518                       # number of overall MSHR misses
system.l2.overall_mshr_misses::.cpu.data        46013                       # number of overall MSHR misses
system.l2.overall_mshr_misses::total            46531                       # number of overall MSHR misses
system.l2.demand_mshr_miss_latency::.cpu.inst     40319000                       # number of demand (read+write) MSHR miss cycles
system.l2.demand_mshr_miss_latency::.cpu.data   3871582000                       # number of demand (read+write) MSHR miss cycles
system.l2.demand_mshr_miss_latency::total   3911901000                       # number of demand (read+write) MSHR miss cycles
system.l2.overall_mshr_miss_latency::.cpu.inst     40319000                       # number of overall MSHR miss cycles
system.l2.overall_mshr_miss_latency::.cpu.data   3871582000                       # number of overall MSHR miss cycles
system.l2.overall_mshr_miss_latency::total   3911901000                       # number of overall MSHR miss cycles
system.l2.demand_mshr_miss_rate::.cpu.inst     0.002027                       # mshr miss rate for demand accesses
system.l2.demand_mshr_miss_rate::.cpu.data     0.431921                       # mshr miss rate for demand accesses
system.l2.demand_mshr_miss_rate::total       0.128498                       # mshr miss rate for demand accesses
system.l2.overall_mshr_miss_rate::.cpu.inst     0.002027                       # mshr miss rate for overall accesses
system.l2.overall_mshr_miss_rate::.cpu.data     0.431921                       # mshr miss rate for overall accesses
system.l2.overall_mshr_miss_rate::total      0.128498                       # mshr miss rate for overall accesses
system.l2.demand_avg_mshr_miss_latency::.cpu.inst 77835.907336                       # average overall mshr miss latency
system.l2.demand_avg_mshr_miss_latency::.cpu.data 84141.047095                       # average overall mshr miss latency
system.l2.demand_avg_mshr_miss_latency::total 84070.855988                       # average overall mshr miss latency
system.l2.overall_avg_mshr_miss_latency::.cpu.inst 77835.907336                       # average overall mshr miss latency
system.l2.overall_avg_mshr_miss_latency::.cpu.data 84141.047095                       # average overall mshr miss latency
system.l2.overall_avg_mshr_miss_latency::total 84070.855988                       # average overall mshr miss latency
system.l2.replacements                          38711                       # number of replacements
system.l2.WritebackDirty_hits::.writebacks        77891                       # number of WritebackDirty hits
system.l2.WritebackDirty_hits::total            77891                       # number of WritebackDirty hits
system.l2.WritebackDirty_accesses::.writebacks        77891                       # number of WritebackDirty accesses(hits+misses)
system.l2.WritebackDirty_accesses::total        77891                       # number of WritebackDirty accesses(hits+misses)
system.l2.WritebackClean_hits::.writebacks       255076                       # number of WritebackClean hits
system.l2.WritebackClean_hits::total           255076                       # number of WritebackClean hits
system.l2.WritebackClean_accesses::.writebacks       255076                       # number of WritebackClean accesses(hits+misses)
system.l2.WritebackClean_accesses::total       255076                       # number of WritebackClean accesses(hits+misses)
system.l2.CleanEvict_mshr_misses::.writebacks           98                       # number of CleanEvict MSHR misses
system.l2.CleanEvict_mshr_misses::total            98                       # number of CleanEvict MSHR misses
system.l2.CleanEvict_mshr_miss_rate::.writebacks          inf                       # mshr miss rate for CleanEvict accesses
system.l2.CleanEvict_mshr_miss_rate::total          inf                       # mshr miss rate for CleanEvict accesses
system.l2.ReadExReq_hits::.cpu.data              4237                       # number of ReadExReq hits
system.l2.ReadExReq_hits::total                  4237                       # number of ReadExReq hits
system.l2.ReadExReq_misses::.cpu.data           38792                       # number of ReadExReq misses
system.l2.ReadExReq_misses::total               38792                       # number of ReadExReq misses
system.l2.ReadExReq_miss_latency::.cpu.data   3998561000                       # number of ReadExReq miss cycles
system.l2.ReadExReq_miss_latency::total    3998561000                       # number of ReadExReq miss cycles
system.l2.ReadExReq_accesses::.cpu.data         43029                       # number of ReadExReq accesses(hits+misses)
system.l2.ReadExReq_accesses::total             43029                       # number of ReadExReq accesses(hits+misses)
system.l2.ReadExReq_miss_rate::.cpu.data     0.901532                       # miss rate for ReadExReq accesses
system.l2.ReadExReq_miss_rate::total         0.901532                       # miss rate for ReadExReq accesses
system.l2.ReadExReq_avg_miss_latency::.cpu.data 103076.948855                       # average ReadExReq miss latency
system.l2.ReadExReq_avg_miss_latency::total 103076.948855                       # average ReadExReq miss latency
system.l2.ReadExReq_mshr_misses::.cpu.data        38792                       # number of ReadExReq MSHR misses
system.l2.ReadExReq_mshr_misses::total          38792                       # number of ReadExReq MSHR misses
system.l2.ReadExReq_mshr_miss_latency::.cpu.data   3222721000                       # number of ReadExReq MSHR miss cycles
system.l2.ReadExReq_mshr_miss_latency::total   3222721000                       # number of ReadExReq MSHR miss cycles
system.l2.ReadExReq_mshr_miss_rate::.cpu.data     0.901532                       # mshr miss rate for ReadExReq accesses
system.l2.ReadExReq_mshr_miss_rate::total     0.901532                       # mshr miss rate for ReadExReq accesses
system.l2.ReadExReq_avg_mshr_miss_latency::.cpu.data 83076.948855                       # average ReadExReq mshr miss latency
system.l2.ReadExReq_avg_mshr_miss_latency::total 83076.948855                       # average ReadExReq mshr miss latency
system.l2.ReadCleanReq_hits::.cpu.inst         255066                       # number of ReadCleanReq hits
system.l2.ReadCleanReq_hits::total             255066                       # number of ReadCleanReq hits
system.l2.ReadCleanReq_misses::.cpu.inst          518                       # number of ReadCleanReq misses
system.l2.ReadCleanReq_misses::total              518                       # number of ReadCleanReq misses
system.l2.ReadCleanReq_miss_latency::.cpu.inst     50679000                       # number of ReadCleanReq miss cycles
system.l2.ReadCleanReq_miss_latency::total     50679000                       # number of ReadCleanReq miss cycles
system.l2.ReadCleanReq_accesses::.cpu.inst       255584                       # number of ReadCleanReq accesses(hits+misses)
system.l2.ReadCleanReq_accesses::total         255584                       # number of ReadCleanReq accesses(hits+misses)
system.l2.ReadCleanReq_miss_rate::.cpu.inst     0.002027                       # miss rate for ReadCleanReq accesses
system.l2.ReadCleanReq_miss_rate::total      0.002027                       # miss rate for ReadCleanReq accesses
system.l2.ReadCleanReq_avg_miss_latency::.cpu.inst 97835.907336                       # average ReadCleanReq miss latency
system.l2.ReadCleanReq_avg_miss_latency::total 97835.907336                       # average ReadCleanReq miss latency
system.l2.ReadCleanReq_mshr_misses::.cpu.inst          518                       # number of ReadCleanReq MSHR misses
system.l2.ReadCleanReq_mshr_misses::total          518                       # number of ReadCleanReq MSHR misses
system.l2.ReadCleanReq_mshr_miss_latency::.cpu.inst     40319000                       # number of ReadCleanReq MSHR miss cycles
system.l2.ReadCleanReq_mshr_miss_latency::total     40319000                       # number of ReadCleanReq MSHR miss cycles
system.l2.ReadCleanReq_mshr_miss_rate::.cpu.inst     0.002027                       # mshr miss rate for ReadCleanReq accesses
system.l2.ReadCleanReq_mshr_miss_rate::total     0.002027                       # mshr miss rate for ReadCleanReq accesses
system.l2.ReadCleanReq_avg_mshr_miss_latency::.cpu.inst 77835.907336                       # average ReadCleanReq mshr miss latency
system.l2.ReadCleanReq_avg_mshr_miss_latency::total 77835.907336                       # average ReadCleanReq mshr miss latency
system.l2.ReadSharedReq_hits::.cpu.data         56276                       # number of ReadSharedReq hits
system.l2.ReadSharedReq_hits::total             56276                       # number of ReadSharedReq hits
system.l2.ReadSharedReq_misses::.cpu.data         7226                       # number of ReadSharedReq misses
system.l2.ReadSharedReq_misses::total            7226                       # number of ReadSharedReq misses
system.l2.ReadSharedReq_miss_latency::.cpu.data    793693000                       # number of ReadSharedReq miss cycles
system.l2.ReadSharedReq_miss_latency::total    793693000                       # number of ReadSharedReq miss cycles
system.l2.ReadSharedReq_accesses::.cpu.data        63502                       # number of ReadSharedReq accesses(hits+misses)
system.l2.ReadSharedReq_accesses::total         63502                       # number of ReadSharedReq accesses(hits+misses)
system.l2.ReadSharedReq_miss_rate::.cpu.data     0.113792                       # miss rate for ReadSharedReq accesses
system.l2.ReadSharedReq_miss_rate::total     0.113792                       # miss rate for ReadSharedReq accesses
system.l2.ReadSharedReq_avg_miss_latency::.cpu.data 109838.499862                       # average ReadSharedReq miss latency
system.l2.ReadSharedReq_avg_miss_latency::total 109838.499862                       # average ReadSharedReq miss latency
system.l2.ReadSharedReq_mshr_hits::.cpu.data            5                       # number of ReadSharedReq MSHR hits
system.l2.ReadSharedReq_mshr_hits::total            5                       # number of ReadSharedReq MSHR hits
system.l2.ReadSharedReq_mshr_misses::.cpu.data         7221                       # number of ReadSharedReq MSHR misses
system.l2.ReadSharedReq_mshr_misses::total         7221                       # number of ReadSharedReq MSHR misses
system.l2.ReadSharedReq_mshr_miss_latency::.cpu.data    648861000                       # number of ReadSharedReq MSHR miss cycles
system.l2.ReadSharedReq_mshr_miss_latency::total    648861000                       # number of ReadSharedReq MSHR miss cycles
system.l2.ReadSharedReq_mshr_miss_rate::.cpu.data     0.113713                       # mshr miss rate for ReadSharedReq accesses
system.l2.ReadSharedReq_mshr_miss_rate::total     0.113713                       # mshr miss rate for ReadSharedReq accesses
system.l2.ReadSharedReq_avg_mshr_miss_latency::.cpu.data 89857.498961                       # average ReadSharedReq mshr miss latency
system.l2.ReadSharedReq_avg_mshr_miss_latency::total 89857.498961                       # average ReadSharedReq mshr miss latency
system.l2.power_state.pwrStateResidencyTicks::UNDEFINED 119797116000                       # Cumulative time (in ticks) in various power states
system.l2.tags.tagsinuse                  8004.314534                       # Cycle average of tags in use
system.l2.tags.total_refs                      721767                       # Total number of references to valid blocks.
system.l2.tags.sampled_refs                     46903                       # Sample count of references to valid blocks.
system.l2.tags.avg_refs                     15.388504                       # Average number of references to valid blocks.
system.l2.tags.warmup_cycle                     87000                       # Cycle when the warmup percentage was hit.
system.l2.tags.occ_blocks::.writebacks      47.103369                       # Average occupied blocks per requestor
system.l2.tags.occ_blocks::.cpu.inst        26.354939                       # Average occupied blocks per requestor
system.l2.tags.occ_blocks::.cpu.data      7930.856226                       # Average occupied blocks per requestor
system.l2.tags.occ_percent::.writebacks      0.005750                       # Average percentage of cache occupancy
system.l2.tags.occ_percent::.cpu.inst        0.003217                       # Average percentage of cache occupancy
system.l2.tags.occ_percent::.cpu.data        0.968122                       # Average percentage of cache occupancy
system.l2.tags.occ_percent::total            0.977089                       # Average percentage of cache occupancy
system.l2.tags.occ_task_id_blocks::1024          8192                       # Occupied blocks per task id
system.l2.tags.age_task_id_blocks_1024::0            2                       # Occupied blocks per task id
system.l2.tags.age_task_id_blocks_1024::1           17                       # Occupied blocks per task id
system.l2.tags.age_task_id_blocks_1024::2          233                       # Occupied blocks per task id
system.l2.tags.age_task_id_blocks_1024::3         2410                       # Occupied blocks per task id
system.l2.tags.age_task_id_blocks_1024::4         5530                       # Occupied blocks per task id
system.l2.tags.occ_task_id_percent::1024            1                       # Percentage of cache occupancy per task id
system.l2.tags.tag_accesses                   1490643                       # Number of tag accesses
system.l2.tags.data_accesses                  1490643                       # Number of data accesses
system.l2.tags.power_state.pwrStateResidencyTicks::UNDEFINED 119797116000                       # Cumulative time (in ticks) in various power states
system.mem_ctrls.avgPriority_.writebacks::samples     37629.00                       # Average QoS priority value for accepted requests
system.mem_ctrls.avgPriority_.cpu.inst::samples       518.00                       # Average QoS priority value for accepted requests
system.mem_ctrls.avgPriority_.cpu.data::samples     45991.00                       # Average QoS priority value for accepted requests
system.mem_ctrls.priorityMinLatency      0.000000018750                       # per QoS priority minimum request to response latency (s)
system.mem_ctrls.priorityMaxLatency      0.005593148500                       # per QoS priority maximum request to response latency (s)
system.mem_ctrls.numReadWriteTurnArounds         2106                       # Number of turnarounds from READ to WRITE
system.mem_ctrls.numWriteReadTurnArounds         2106                       # Number of turnarounds from WRITE to READ
system.mem_ctrls.numStayReadState              160845                       # Number of times bus staying in READ state
system.mem_ctrls.numStayWriteState              35572                       # Number of times bus staying in WRITE state
system.mem_ctrls.readReqs                       46531                       # Number of read requests accepted
system.mem_ctrls.writeReqs                      37629                       # Number of write requests accepted
system.mem_ctrls.readBursts                     46531                       # Number of controller read bursts, including those serviced by the write queue
system.mem_ctrls.writeBursts                    37629                       # Number of controller write bursts, including those merged in the write queue
system.mem_ctrls.servicedByWrQ                     22                       # Number of controller read bursts serviced by the write queue
system.mem_ctrls.mergedWrBursts                     0                       # Number of controller write bursts merged with an existing one
system.mem_ctrls.neitherReadNorWriteReqs            0                       # Number of requests that are neither read nor write
system.mem_ctrls.avgRdQLen                       1.05                       # Average read queue length when enqueuing
system.mem_ctrls.avgWrQLen                      23.55                       # Average write queue length when enqueuing
system.mem_ctrls.numRdRetry                         0                       # Number of times read queue was full causing retry
system.mem_ctrls.numWrRetry                         0                       # Number of times write queue was full causing retry
system.mem_ctrls.readPktSize::0                     0                       # Read request sizes (log2)
system.mem_ctrls.readPktSize::1                     0                       # Read request sizes (log2)
[...]
system.mem_ctrls.dram.bw_write::.writebacks     20102788                       # Write bandwidth from this memory (bytes/s)
system.mem_ctrls.dram.bw_write::total        20102788                       # Write bandwidth from this memory (bytes/s)
system.mem_ctrls.dram.bw_total::.writebacks     20102788                       # Total bandwidth to/from this memory (bytes/s)
system.mem_ctrls.dram.bw_total::.cpu.inst       276735                       # Total bandwidth to/from this memory (bytes/s)
system.mem_ctrls.dram.bw_total::.cpu.data     24581827                       # Total bandwidth to/from this memory (bytes/s)
system.mem_ctrls.dram.bw_total::total        44961349                       # Total bandwidth to/from this memory (bytes/s)
system.mem_ctrls.dram.readBursts                46509                       # Number of DRAM read bursts
system.mem_ctrls.dram.writeBursts               37606                       # Number of DRAM write bursts
system.mem_ctrls.dram.perBankRdBursts::0         2910                       # Per bank write bursts
system.mem_ctrls.dram.perBankRdBursts::1         2849                       # Per bank write bursts
system.mem_ctrls.dram.perBankRdBursts::2         2861                       # Per bank write bursts
system.mem_ctrls.dram.perBankRdBursts::3         2918                       # Per bank write bursts
system.mem_ctrls.dram.perBankRdBursts::4         2930                       # Per bank write bursts
system.mem_ctrls.dram.perBankRdBursts::5         2949                       # Per bank write bursts
system.mem_ctrls.dram.perBankRdBursts::6         2799                       # Per bank write bursts
system.mem_ctrls.dram.perBankRdBursts::7         2908                       # Per bank write bursts
system.mem_ctrls.dram.perBankRdBursts::8         2990                       # Per bank write bursts
system.mem_ctrls.dram.perBankRdBursts::9         2885                       # Per bank write bursts
system.mem_ctrls.dram.perBankRdBursts::10         2911                       # Per bank write bursts
system.mem_ctrls.dram.perBankRdBursts::11         2978                       # Per bank write bursts
system.mem_ctrls.dram.perBankRdBursts::12         2866                       # Per bank write bursts
system.mem_ctrls.dram.perBankRdBursts::13         2930                       # Per bank write bursts
system.mem_ctrls.dram.perBankRdBursts::14         2876                       # Per bank write bursts
system.mem_ctrls.dram.perBankRdBursts::15         2949                       # Per bank write bursts
system.mem_ctrls.dram.perBankWrBursts::0         2355                       # Per bank write bursts
system.mem_ctrls.dram.perBankWrBursts::1         2300                       # Per bank write bursts
system.mem_ctrls.dram.perBankWrBursts::2         2339                       # Per bank write bursts
system.mem_ctrls.dram.perBankWrBursts::3         2323                       # Per bank write bursts
system.mem_ctrls.dram.perBankWrBursts::4         2320                       # Per bank write bursts
system.mem_ctrls.dram.perBankWrBursts::5         2382                       # Per bank write bursts
system.mem_ctrls.dram.perBankWrBursts::6         2288                       # Per bank write bursts
system.mem_ctrls.dram.perBankWrBursts::7         2373                       # Per bank write bursts
system.mem_ctrls.dram.perBankWrBursts::8         2451                       # Per bank write bursts
system.mem_ctrls.dram.perBankWrBursts::9         2321                       # Per bank write bursts
system.mem_ctrls.dram.perBankWrBursts::10         2361                       # Per bank write bursts
system.mem_ctrls.dram.perBankWrBursts::11         2399                       # Per bank write bursts
system.mem_ctrls.dram.perBankWrBursts::12         2301                       # Per bank write bursts
system.mem_ctrls.dram.perBankWrBursts::13         2396                       # Per bank write bursts
system.mem_ctrls.dram.perBankWrBursts::14         2306                       # Per bank write bursts
system.mem_ctrls.dram.perBankWrBursts::15         2391                       # Per bank write bursts
system.mem_ctrls.dram.totQLat               648633000                       # Total ticks spent queuing
system.mem_ctrls.dram.totBusLat             232545000                       # Total ticks spent in databus transfers
system.mem_ctrls.dram.totMemAccLat         1520676750                       # Total ticks spent from burst creation until serviced by the DRAM
system.mem_ctrls.dram.avgQLat                13946.40                       # Average queueing delay per DRAM burst
system.mem_ctrls.dram.avgBusLat               5000.00                       # Average bus latency per DRAM burst
system.mem_ctrls.dram.avgMemAccLat           32696.40                       # Average memory access latency per DRAM burst
system.mem_ctrls.dram.readRowHits               20280                       # Number of row buffer hits during reads
system.mem_ctrls.dram.writeRowHits              27295                       # Number of row buffer hits during writes
system.mem_ctrls.dram.readRowHitRate            43.60                       # Row buffer hit rate for reads
system.mem_ctrls.dram.writeRowHitRate           72.58                       # Row buffer hit rate for writes
system.mem_ctrls.dram.bytesPerActivate::samples        36539                       # Bytes accessed per row activation
system.mem_ctrls.dram.bytesPerActivate::mean   147.330140                       # Bytes accessed per row activation
system.mem_ctrls.dram.bytesPerActivate::gmean   102.912416                       # Bytes accessed per row activation
system.mem_ctrls.dram.bytesPerActivate::stdev   181.354912                       # Bytes accessed per row activation
system.mem_ctrls.dram.bytesPerActivate::0-127        22116     60.53%     60.53% # Bytes accessed per row activation
system.mem_ctrls.dram.bytesPerActivate::128-255         9052     24.77%     85.30% # Bytes accessed per row activation
system.mem_ctrls.dram.bytesPerActivate::256-383         2038      5.58%     90.88% # Bytes accessed per row activation
system.mem_ctrls.dram.bytesPerActivate::384-511         1260      3.45%     94.33% # Bytes accessed per row activation
system.mem_ctrls.dram.bytesPerActivate::512-639          648      1.77%     96.10% # Bytes accessed per row activation
system.mem_ctrls.dram.bytesPerActivate::640-767          280      0.77%     96.87% # Bytes accessed per row activation
system.mem_ctrls.dram.bytesPerActivate::768-895          286      0.78%     97.65% # Bytes accessed per row activation
system.mem_ctrls.dram.bytesPerActivate::896-1023          268      0.73%     98.38% # Bytes accessed per row activation
system.mem_ctrls.dram.bytesPerActivate::1024-1151          591      1.62%    100.00% # Bytes accessed per row activation
system.mem_ctrls.dram.bytesPerActivate::total        36539                       # Bytes accessed per row activation
system.mem_ctrls.dram.bytesRead               2976576                       # Total number of bytes read from DRAM
system.mem_ctrls.dram.bytesWritten            2406784                       # Total number of bytes written to DRAM
system.mem_ctrls.dram.avgRdBW               24.846808                       # Average DRAM read bandwidth in MiBytes/s
system.mem_ctrls.dram.avgWrBW               20.090500                       # Average DRAM write bandwidth in MiBytes/s
system.mem_ctrls.dram.peakBW                 12800.00                       # Theoretical peak bandwidth in MiByte/s
system.mem_ctrls.dram.busUtil                    0.35                       # Data bus utilization in percentage
system.mem_ctrls.dram.busUtilRead                0.19                       # Data bus utilization in percentage for reads
system.mem_ctrls.dram.busUtilWrite               0.16                       # Data bus utilization in percentage for writes
system.mem_ctrls.dram.pageHitRate               56.56                       # Row buffer hit rate, read and write combined
system.mem_ctrls.dram.power_state.pwrStateResidencyTicks::UNDEFINED 119797116000                       # Cumulative time (in ticks) in various power states
system.mem_ctrls.dram.rank0.actEnergy       130947600                       # Energy for activate commands per rank (pJ)
system.mem_ctrls.dram.rank0.preEnergy        69596505                       # Energy for precharge commands per rank (pJ)
system.mem_ctrls.dram.rank0.readEnergy      165105360                       # Energy for read commands per rank (pJ)
system.mem_ctrls.dram.rank0.writeEnergy      97509600                       # Energy for write commands per rank (pJ)
system.mem_ctrls.dram.rank0.refreshEnergy 9456236400.000002                       # Energy for refresh commands per rank (pJ)
system.mem_ctrls.dram.rank0.actBackEnergy  24279266280                       # Energy for active background per rank (pJ)
system.mem_ctrls.dram.rank0.preBackEnergy  25556394720                       # Energy for precharge background per rank (pJ)
system.mem_ctrls.dram.rank0.actPowerDownEnergy            0                       # Energy for active power-down per rank (pJ)
system.mem_ctrls.dram.rank0.prePowerDownEnergy            0                       # Energy for precharge power-down per rank (pJ)
system.mem_ctrls.dram.rank0.selfRefreshEnergy            0                       # Energy for self refresh per rank (pJ)
system.mem_ctrls.dram.rank0.totalEnergy   59755056465                       # Total energy per rank (pJ)
system.mem_ctrls.dram.rank0.averagePower   498.802129                       # Core power per rank (mW)
system.mem_ctrls.dram.rank0.totalIdleTime            0                       # Total Idle time Per DRAM Rank
system.mem_ctrls.dram.rank0.pwrStateTime::IDLE  66196781500                       # Time in different power states
system.mem_ctrls.dram.rank0.pwrStateTime::REF   4000100000                       # Time in different power states
system.mem_ctrls.dram.rank0.pwrStateTime::SREF            0                       # Time in different power states
system.mem_ctrls.dram.rank0.pwrStateTime::PRE_PDN            0                       # Time in different power states
system.mem_ctrls.dram.rank0.pwrStateTime::ACT  49600234500                       # Time in different power states
system.mem_ctrls.dram.rank0.pwrStateTime::ACT_PDN            0                       # Time in different power states
system.mem_ctrls.dram.rank1.actEnergy       129948000                       # Energy for activate commands per rank (pJ)
system.mem_ctrls.dram.rank1.preEnergy        69069000                       # Energy for precharge commands per rank (pJ)
system.mem_ctrls.dram.rank1.readEnergy      166968900                       # Energy for read commands per rank (pJ)
system.mem_ctrls.dram.rank1.writeEnergy      98793720                       # Energy for write commands per rank (pJ)
system.mem_ctrls.dram.rank1.refreshEnergy 9456236400.000002                       # Energy for refresh commands per rank (pJ)
system.mem_ctrls.dram.rank1.actBackEnergy  24795917700                       # Energy for active background per rank (pJ)
system.mem_ctrls.dram.rank1.preBackEnergy  25121319840                       # Energy for precharge background per rank (pJ)
system.mem_ctrls.dram.rank1.actPowerDownEnergy            0                       # Energy for active power-down per rank (pJ)
system.mem_ctrls.dram.rank1.prePowerDownEnergy            0                       # Energy for precharge power-down per rank (pJ)
system.mem_ctrls.dram.rank1.selfRefreshEnergy            0                       # Energy for self refresh per rank (pJ)
system.mem_ctrls.dram.rank1.totalEnergy   59838253560                       # Total energy per rank (pJ)
system.mem_ctrls.dram.rank1.averagePower   499.496612                       # Core power per rank (mW)
system.mem_ctrls.dram.rank1.totalIdleTime            0                       # Total Idle time Per DRAM Rank
system.mem_ctrls.dram.rank1.pwrStateTime::IDLE  65058062500                       # Time in different power states
system.mem_ctrls.dram.rank1.pwrStateTime::REF   4000100000                       # Time in different power states
system.mem_ctrls.dram.rank1.pwrStateTime::SREF            0                       # Time in different power states
system.mem_ctrls.dram.rank1.pwrStateTime::PRE_PDN            0                       # Time in different power states
system.mem_ctrls.dram.rank1.pwrStateTime::ACT  50738953500                       # Time in different power states
system.mem_ctrls.dram.rank1.pwrStateTime::ACT_PDN            0                       # Time in different power states
system.mem_ctrls.power_state.pwrStateResidencyTicks::UNDEFINED 119797116000                       # Cumulative time (in ticks) in various power states
system.membus.trans_dist::ReadResp               7739                       # Transaction distribution
system.membus.trans_dist::WritebackDirty        37629                       # Transaction distribution
system.membus.trans_dist::CleanEvict              205                       # Transaction distribution
system.membus.trans_dist::ReadExReq             38792                       # Transaction distribution
system.membus.trans_dist::ReadExResp            38792                       # Transaction distribution
system.membus.trans_dist::ReadSharedReq          7739                       # Transaction distribution
system.membus.pkt_count_system.l2.mem_side_port::system.mem_ctrls.port       130896                       # Packet count per connected requestor and responder (bytes)
system.membus.pkt_count::total                 130896                       # Packet count per connected requestor and responder (bytes)
system.membus.pkt_size_system.l2.mem_side_port::system.mem_ctrls.port      5386240                       # Cumulative packet size per connected requestor and responder (bytes)
system.membus.pkt_size::total                 5386240                       # Cumulative packet size per connected requestor and responder (bytes)
system.membus.snoops                                0                       # Total snoops (count)
system.membus.snoopTraffic                          0                       # Total snoop traffic (bytes)
system.membus.snoop_fanout::samples             46531                       # Request fanout histogram
system.membus.snoop_fanout::mean                    0                       # Request fanout histogram
system.membus.snoop_fanout::stdev                   0                       # Request fanout histogram
system.membus.snoop_fanout::underflows              0      0.00%      0.00% # Request fanout histogram
system.membus.snoop_fanout::0                   46531    100.00%    100.00% # Request fanout histogram
system.membus.snoop_fanout::1                       0      0.00%    100.00% # Request fanout histogram
system.membus.snoop_fanout::overflows               0      0.00%    100.00% # Request fanout histogram
system.membus.snoop_fanout::min_value               0                       # Request fanout histogram
system.membus.snoop_fanout::max_value               0                       # Request fanout histogram
system.membus.snoop_fanout::total               46531                       # Request fanout histogram
system.membus.power_state.pwrStateResidencyTicks::UNDEFINED 119797116000                       # Cumulative time (in ticks) in various power states
system.membus.reqLayer0.occupancy           234881000                       # Layer occupancy (ticks)
system.membus.reqLayer0.utilization               0.2                       # Layer utilization (%)
system.membus.respLayer1.occupancy          250988250                       # Layer occupancy (ticks)
system.membus.respLayer1.utilization              0.2                       # Layer utilization (%)
system.tol2bus.trans_dist::ReadResp            319086                       # Transaction distribution
system.tol2bus.trans_dist::WritebackDirty       115520                       # Transaction distribution
system.tol2bus.trans_dist::WritebackClean       255077                       # Transaction distribution
system.tol2bus.trans_dist::CleanEvict           28698                       # Transaction distribution
system.tol2bus.trans_dist::ReadExReq            43029                       # Transaction distribution
system.tol2bus.trans_dist::ReadExResp           43029                       # Transaction distribution
system.tol2bus.trans_dist::ReadCleanReq        255584                       # Transaction distribution
system.tol2bus.trans_dist::ReadSharedReq        63502                       # Transaction distribution
system.tol2bus.pkt_count_system.cpu.icache.mem_side_port::system.l2.cpu_side_port       766245                       # Packet count per connected requestor and responder (bytes)
system.tol2bus.pkt_count_system.cpu.dcache.mem_side_port::system.l2.cpu_side_port       318569                       # Packet count per connected requestor and responder (bytes)
system.tol2bus.pkt_count::total               1084814                       # Packet count per connected requestor and responder (bytes)
system.tol2bus.pkt_size_system.cpu.icache.mem_side_port::system.l2.cpu_side_port     32682304                       # Cumulative packet size per connected requestor and responder (bytes)
system.tol2bus.pkt_size_system.cpu.dcache.mem_side_port::system.l2.cpu_side_port     11803008                       # Cumulative packet size per connected requestor and responder (bytes)
system.tol2bus.pkt_size::total               44485312                       # Cumulative packet size per connected requestor and responder (bytes)
system.tol2bus.snoops                           38711                       # Total snoops (count)
system.tol2bus.snoopTraffic                   2408256                       # Total snoop traffic (bytes)
system.tol2bus.snoop_fanout::samples           400826                       # Request fanout histogram
system.tol2bus.snoop_fanout::mean            0.004528                       # Request fanout histogram
system.tol2bus.snoop_fanout::stdev           0.067362                       # Request fanout histogram
system.tol2bus.snoop_fanout::underflows             0      0.00%      0.00% # Request fanout histogram
system.tol2bus.snoop_fanout::0                 399017     99.55%     99.55% # Request fanout histogram
system.tol2bus.snoop_fanout::1                   1803      0.45%    100.00% # Request fanout histogram
system.tol2bus.snoop_fanout::2                      6      0.00%    100.00% # Request fanout histogram
system.tol2bus.snoop_fanout::overflows              0      0.00%    100.00% # Request fanout histogram
system.tol2bus.snoop_fanout::min_value              0                       # Request fanout histogram
system.tol2bus.snoop_fanout::max_value              2                       # Request fanout histogram
system.tol2bus.snoop_fanout::total             400826                       # Request fanout histogram
system.tol2bus.power_state.pwrStateResidencyTicks::UNDEFINED 119797116000                       # Cumulative time (in ticks) in various power states
system.tol2bus.reqLayer0.occupancy         1388635000                       # Layer occupancy (ticks)
system.tol2bus.reqLayer0.utilization              1.2                       # Layer utilization (%)
system.tol2bus.respLayer0.occupancy         766752000                       # Layer occupancy (ticks)
system.tol2bus.respLayer0.utilization             0.6                       # Layer utilization (%)
system.tol2bus.respLayer1.occupancy         319597995                       # Layer occupancy (ticks)
system.tol2bus.respLayer1.utilization             0.3                       # Layer utilization (%)
system.voltage_domain.voltage                       1                       # Voltage in Volts

---------- End Simulation Statistics   ----------
