
---------- Begin Simulation Statistics ----------
simSeconds                                   0.109546                       # Number of seconds simulated (Second)
simTicks                                 109546112350                       # Number of ticks simulated (Tick)
finalTick                                109546112350                       # Number of ticks from beginning of simulation (restored from checkpoints and never reset) (Tick)
simFreq                                  1000000000000                       # The number of ticks per simulated second ((Tick/Second))
hostSeconds                                    377.78                       # Real time elapsed on the host (Second)
hostTickRate                                289972578                       # The number of ticks simulated per host second (ticks/s) ((Tick/Second))
hostMemory                                     731240                       # Number of bytes of host memory used (Byte)
simInsts                                    100000000                       # Number of instructions simulated (Count)
simOps                                      100199496                       # Number of ops (including micro ops) simulated (Count)
hostInstRate                                   264704                       # Simulator instruction rate (inst/s) ((Count/Second))
hostOpRate                                     265232                       # Simulator op (including micro ops) rate (op/s) ((Count/Second))
system.clk_domain.clock                          1000                       # Clock period in ticks (Tick)
system.cpu.numCycles                        164237050                       # Number of cpu cycles simulated (Cycle)
system.cpu.numWorkItemsStarted                      0                       # Number of work items this cpu started (Count)
system.cpu.numWorkItemsCompleted                    0                       # Number of work items this cpu completed (Count)
system.cpu.numInsts                         100000000                       # Number of instructions committed (Count)
system.cpu.numOps                           100199496                       # Number of ops (including micro ops) committed (Count)
system.cpu.numDiscardedOps                     197525                       # Number of ops (including micro ops) which were discarded before commit (Count)
system.cpu.numFetchSuspends                         0                       # Number of times Execute suspended instruction fetching (Count)
system.cpu.cpi                               1.642370                       # CPI: cycles per instruction ((Cycle/Count))
system.cpu.ipc                               0.608876                       # IPC: instructions per cycle ((Count/Cycle))
system.cpu.committedInstType_0::No_OpClass            0      0.00%      0.00% # Class of committed instruction (Count)
system.cpu.committedInstType_0::IntAlu       46438739     46.35%     46.35% # Class of committed instruction (Count)
system.cpu.committedInstType_0::IntMult         20720      0.02%     46.37% # Class of committed instruction (Count)
system.cpu.committedInstType_0::IntDiv              0      0.00%     46.37% # Class of committed instruction (Count)
system.cpu.committedInstType_0::FloatAdd            0      0.00%     46.37% # Class of committed instruction (Count)
system.cpu.committedInstType_0::FloatCmp            0      0.00%     46.37% # Class of committed instruction (Count)
system.cpu.committedInstType_0::FloatCvt            0      0.00%     46.37% # Class of committed instruction (Count)
system.cpu.committedInstType_0::FloatMult            0      0.00%     46.37% # Class of committed instruction (Count)
system.cpu.committedInstType_0::FloatMultAcc            0      0.00%     46.37% # Class of committed instruction (Count)
system.cpu.committedInstType_0::FloatDiv            0      0.00%     46.37% # Class of committed instruction (Count)
system.cpu.committedInstType_0::FloatMisc            0      0.00%     46.37% # Class of committed instruction (Count)
system.cpu.committedInstType_0::FloatSqrt            0      0.00%     46.37% # Class of committed instruction (Count)
system.cpu.committedInstType_0::SimdAdd             0      0.00%     46.37% # Class of committed instruction (Count)
system.cpu.committedInstType_0::SimdAddAcc            0      0.00%     46.37% # Class of committed instruction (Count)
system.cpu.committedInstType_0::SimdAlu             0      0.00%     46.37% # Class of committed instruction (Count)
system.cpu.committedInstType_0::SimdCmp             0      0.00%     46.37% # Class of committed instruction (Count)
system.cpu.committedInstType_0::SimdCvt             0      0.00%     46.37% # Class of committed instruction (Count)
system.cpu.committedInstType_0::SimdMisc            0      0.00%     46.37% # Class of committed instruction (Count)
system.cpu.committedInstType_0::SimdMult            0      0.00%     46.37% # Class of committed instruction (Count)
system.cpu.committedInstType_0::SimdMultAcc            0      0.00%     46.37% # Class of committed instruction (Count)
system.cpu.committedInstType_0::SimdShift            0      0.00%     46.37% # Class of committed instruction (Count)
system.cpu.committedInstType_0::SimdShiftAcc            0      0.00%     46.37% # Class of committed instruction (Count)
system.cpu.committedInstType_0::SimdDiv             0      0.00%     46.37% # Class of committed instruction (Count)
system.cpu.committedInstType_0::SimdSqrt            0      0.00%     46.37% # Class of committed instruction (Count)
system.cpu.committedInstType_0::SimdFloatAdd            0      0.00%     46.37% # Class of committed instruction (Count)
system.cpu.committedInstType_0::SimdFloatAlu            0      0.00%     46.37% # Class of committed instruction (Count)
system.cpu.committedInstType_0::SimdFloatCmp            0      0.00%     46.37% # Class of committed instruction (Count)
system.cpu.committedInstType_0::SimdFloatCvt            0      0.00%     46.37% # Class of committed instruction (Count)
system.cpu.committedInstType_0::SimdFloatDiv            0      0.00%     46.37% # Class of committed instruction (Count)
system.cpu.committedInstType_0::SimdFloatMisc            1      0.00%     46.37% # Class of committed instruction (Count)
system.cpu.committedInstType_0::SimdFloatMult            0      0.00%     46.37% # Class of committed instruction (Count)
system.cpu.committedInstType_0::SimdFloatMultAcc            0      0.00%     46.37% # Class of committed instruction (Count)
system.cpu.committedInstType_0::SimdFloatSqrt            0      0.00%     46.37% # Class of committed instruction (Count)
system.cpu.committedInstType_0::SimdReduceAdd            0      0.00%     46.37% # Class of committed instruction (Count)
system.cpu.committedInstType_0::SimdReduceAlu            0      0.00%     46.37% # Class of committed instruction (Count)
system.cpu.committedInstType_0::SimdReduceCmp            0      0.00%     46.37% # Class of committed instruction (Count)
system.cpu.committedInstType_0::SimdFloatReduceAdd            0      0.00%     46.37% # Class of committed instruction (Count)
system.cpu.committedInstType_0::SimdFloatReduceCmp            0      0.00%     46.37% # Class of committed instruction (Count)
system.cpu.committedInstType_0::SimdAes             0      0.00%     46.37% # Class of committed instruction (Count)
system.cpu.committedInstType_0::SimdAesMix            0      0.00%     46.37% # Class of committed instruction (Count)
system.cpu.committedInstType_0::SimdSha1Hash            0      0.00%     46.37% # Class of committed instruction (Count)
system.cpu.committedInstType_0::SimdSha1Hash2            0      0.00%     46.37% # Class of committed instruction (Count)
system.cpu.committedInstType_0::SimdSha256Hash            0      0.00%     46.37% # Class of committed instruction (Count)
system.cpu.committedInstType_0::SimdSha256Hash2            0      0.00%     46.37% # Class of committed instruction (Count)
system.cpu.committedInstType_0::SimdShaSigma2            0      0.00%     46.37% # Class of committed instruction (Count)
system.cpu.committedInstType_0::SimdShaSigma3            0      0.00%     46.37% # Class of committed instruction (Count)
system.cpu.committedInstType_0::SimdPredAlu            0      0.00%     46.37% # Class of committed instruction (Count)
system.cpu.committedInstType_0::MemRead      42753845     42.67%     89.04% # Class of committed instruction (Count)
system.cpu.committedInstType_0::MemWrite     10986191     10.96%    100.00% # Class of committed instruction (Count)
system.cpu.committedInstType_0::FloatMemRead            0      0.00%    100.00% # Class of committed instruction (Count)
system.cpu.committedInstType_0::FloatMemWrite            0      0.00%    100.00% # Class of committed instruction (Count)
system.cpu.committedInstType_0::IprAccess            0      0.00%    100.00% # Class of committed instruction (Count)
system.cpu.committedInstType_0::InstPrefetch            0      0.00%    100.00% # Class of committed instruction (Count)
system.cpu.committedInstType_0::total       100199496                       # Class of committed instruction (Count)
system.cpu.branchPred.lookups                 4397367                       # Number of BP lookups (Count)
system.cpu.branchPred.condPredicted           3642728                       # Number of conditional branches predicted (Count)
system.cpu.branchPred.condIncorrect             83181                       # Number of conditional branches incorrect (Count)
system.cpu.branchPred.BTBLookups              2112892                       # Number of BTB lookups (Count)
system.cpu.branchPred.BTBHits                 2110693                       # Number of BTB hits (Count)
system.cpu.branchPred.BTBHitRatio            0.998959                       # BTB Hit Ratio (Ratio)
system.cpu.branchPred.RASUsed                   66041                       # Number of times the RAS was used to get a target. (Count)
system.cpu.branchPred.RASIncorrect                 15                       # Number of incorrect RAS predictions. (Count)
system.cpu.branchPred.indirectLookups             682                       # Number of indirect predictor lookups. (Count)
system.cpu.branchPred.indirectHits                295                       # Number of indirect target hits. (Count)
system.cpu.branchPred.indirectMisses              387                       # Number of indirect misses. (Count)
system.cpu.branchPred.indirectMispredicted          165                       # Number of mispredicted indirect branches. (Count)
system.cpu.dcache.demandHits::cpu.data       51414939                       # number of demand (read+write) hits (Count)
system.cpu.dcache.demandHits::total          51414939                       # number of demand (read+write) hits (Count)
system.cpu.dcache.overallHits::cpu.data      51415442                       # number of overall hits (Count)
system.cpu.dcache.overallHits::total         51415442                       # number of overall hits (Count)
system.cpu.dcache.demandMisses::cpu.data       735378                       # number of demand (read+write) misses (Count)
system.cpu.dcache.demandMisses::total          735378                       # number of demand (read+write) misses (Count)
system.cpu.dcache.overallMisses::cpu.data       743294                       # number of overall misses (Count)
system.cpu.dcache.overallMisses::total         743294                       # number of overall misses (Count)
system.cpu.dcache.demandMissLatency::cpu.data  28423980221                       # number of demand (read+write) miss ticks (Tick)
system.cpu.dcache.demandMissLatency::total  28423980221                       # number of demand (read+write) miss ticks (Tick)
system.cpu.dcache.overallMissLatency::cpu.data  28423980221                       # number of overall miss ticks (Tick)
system.cpu.dcache.overallMissLatency::total  28423980221                       # number of overall miss ticks (Tick)
system.cpu.dcache.demandAccesses::cpu.data     52150317                       # number of demand (read+write) accesses (Count)
system.cpu.dcache.demandAccesses::total      52150317                       # number of demand (read+write) accesses (Count)
system.cpu.dcache.overallAccesses::cpu.data     52158736                       # number of overall (read+write) accesses (Count)
system.cpu.dcache.overallAccesses::total     52158736                       # number of overall (read+write) accesses (Count)
system.cpu.dcache.demandMissRate::cpu.data     0.014101                       # miss rate for demand accesses (Ratio)
system.cpu.dcache.demandMissRate::total      0.014101                       # miss rate for demand accesses (Ratio)
system.cpu.dcache.overallMissRate::cpu.data     0.014251                       # miss rate for overall accesses (Ratio)
system.cpu.dcache.overallMissRate::total     0.014251                       # miss rate for overall accesses (Ratio)
system.cpu.dcache.demandAvgMissLatency::cpu.data 38652.203657                       # average overall miss latency ((Cycle/Count))
system.cpu.dcache.demandAvgMissLatency::total 38652.203657                       # average overall miss latency ((Cycle/Count))
system.cpu.dcache.overallAvgMissLatency::cpu.data 38240.561906                       # average overall miss latency ((Cycle/Count))
system.cpu.dcache.overallAvgMissLatency::total 38240.561906                       # average overall miss latency ((Cycle/Count))
system.cpu.dcache.blockedCycles::no_mshrs       153658                       # number of cycles access was blocked (Cycle)
system.cpu.dcache.blockedCycles::no_targets            0                       # number of cycles access was blocked (Cycle)
system.cpu.dcache.blockedCauses::no_mshrs         3273                       # number of times access was blocked (Count)
system.cpu.dcache.blockedCauses::no_targets            0                       # number of times access was blocked (Count)
system.cpu.dcache.avgBlocked::no_mshrs      46.947143                       # average number of cycles each access was blocked ((Cycle/Count))
system.cpu.dcache.avgBlocked::no_targets          nan                       # average number of cycles each access was blocked ((Cycle/Count))
system.cpu.dcache.writebacks::writebacks       607474                       # number of writebacks (Count)
system.cpu.dcache.writebacks::total            607474                       # number of writebacks (Count)
system.cpu.dcache.demandMshrHits::cpu.data        58657                       # number of demand (read+write) MSHR hits (Count)
system.cpu.dcache.demandMshrHits::total         58657                       # number of demand (read+write) MSHR hits (Count)
system.cpu.dcache.overallMshrHits::cpu.data        58657                       # number of overall MSHR hits (Count)
system.cpu.dcache.overallMshrHits::total        58657                       # number of overall MSHR hits (Count)
system.cpu.dcache.demandMshrMisses::cpu.data       676721                       # number of demand (read+write) MSHR misses (Count)
system.cpu.dcache.demandMshrMisses::total       676721                       # number of demand (read+write) MSHR misses (Count)
system.cpu.dcache.overallMshrMisses::cpu.data       684630                       # number of overall MSHR misses (Count)
system.cpu.dcache.overallMshrMisses::total       684630                       # number of overall MSHR misses (Count)
system.cpu.dcache.demandMshrMissLatency::cpu.data  25881227480                       # number of demand (read+write) MSHR miss ticks (Tick)
system.cpu.dcache.demandMshrMissLatency::total  25881227480                       # number of demand (read+write) MSHR miss ticks (Tick)
system.cpu.dcache.overallMshrMissLatency::cpu.data  26613289327                       # number of overall MSHR miss ticks (Tick)
system.cpu.dcache.overallMshrMissLatency::total  26613289327                       # number of overall MSHR miss ticks (Tick)
system.cpu.dcache.demandMshrMissRate::cpu.data     0.012976                       # mshr miss ratio for demand accesses (Ratio)
system.cpu.dcache.demandMshrMissRate::total     0.012976                       # mshr miss ratio for demand accesses (Ratio)
system.cpu.dcache.overallMshrMissRate::cpu.data     0.013126                       # mshr miss ratio for overall accesses (Ratio)
system.cpu.dcache.overallMshrMissRate::total     0.013126                       # mshr miss ratio for overall accesses (Ratio)
system.cpu.dcache.demandAvgMshrMissLatency::cpu.data 38245.048521                       # average overall mshr miss latency ((Cycle/Count))
system.cpu.dcache.demandAvgMshrMissLatency::total 38245.048521                       # average overall mshr miss latency ((Cycle/Count))
system.cpu.dcache.overallAvgMshrMissLatency::cpu.data 38872.514098                       # average overall mshr miss latency ((Cycle/Count))
system.cpu.dcache.overallAvgMshrMissLatency::total 38872.514098                       # average overall mshr miss latency ((Cycle/Count))
system.cpu.dcache.replacements                 683609                       # number of replacements (Count)
system.cpu.dcache.LoadLockedReq.hits::cpu.data           34                       # number of LoadLockedReq hits (Count)
system.cpu.dcache.LoadLockedReq.hits::total           34                       # number of LoadLockedReq hits (Count)
system.cpu.dcache.LoadLockedReq.misses::cpu.data            4                       # number of LoadLockedReq misses (Count)
system.cpu.dcache.LoadLockedReq.misses::total            4                       # number of LoadLockedReq misses (Count)
system.cpu.dcache.LoadLockedReq.missLatency::cpu.data       258796                       # number of LoadLockedReq miss ticks (Tick)
system.cpu.dcache.LoadLockedReq.missLatency::total       258796                       # number of LoadLockedReq miss ticks (Tick)
system.cpu.dcache.LoadLockedReq.accesses::cpu.data           38                       # number of LoadLockedReq accesses(hits+misses) (Count)
system.cpu.dcache.LoadLockedReq.accesses::total           38                       # number of LoadLockedReq accesses(hits+misses) (Count)
system.cpu.dcache.LoadLockedReq.missRate::cpu.data     0.105263                       # miss rate for LoadLockedReq accesses (Ratio)
system.cpu.dcache.LoadLockedReq.missRate::total     0.105263                       # miss rate for LoadLockedReq accesses (Ratio)
system.cpu.dcache.LoadLockedReq.avgMissLatency::cpu.data        64699                       # average LoadLockedReq miss latency ((Tick/Count))
system.cpu.dcache.LoadLockedReq.avgMissLatency::total        64699                       # average LoadLockedReq miss latency ((Tick/Count))
system.cpu.dcache.LoadLockedReq.mshrMisses::cpu.data            4                       # number of LoadLockedReq MSHR misses (Count)
system.cpu.dcache.LoadLockedReq.mshrMisses::total            4                       # number of LoadLockedReq MSHR misses (Count)
system.cpu.dcache.LoadLockedReq.mshrMissLatency::cpu.data       253460                       # number of LoadLockedReq MSHR miss ticks (Tick)
system.cpu.dcache.LoadLockedReq.mshrMissLatency::total       253460                       # number of LoadLockedReq MSHR miss ticks (Tick)
system.cpu.dcache.LoadLockedReq.mshrMissRate::cpu.data     0.105263                       # mshr miss rate for LoadLockedReq accesses (Ratio)
system.cpu.dcache.LoadLockedReq.mshrMissRate::total     0.105263                       # mshr miss rate for LoadLockedReq accesses (Ratio)
system.cpu.dcache.LoadLockedReq.avgMshrMissLatency::cpu.data        63365                       # average LoadLockedReq mshr miss latency ((Tick/Count))
system.cpu.dcache.LoadLockedReq.avgMshrMissLatency::total        63365                       # average LoadLockedReq mshr miss latency ((Tick/Count))
system.cpu.dcache.ReadReq.hits::cpu.data     40783342                       # number of ReadReq hits (Count)
system.cpu.dcache.ReadReq.hits::total        40783342                       # number of ReadReq hits (Count)
system.cpu.dcache.ReadReq.misses::cpu.data       389920                       # number of ReadReq misses (Count)
system.cpu.dcache.ReadReq.misses::total        389920                       # number of ReadReq misses (Count)
system.cpu.dcache.ReadReq.missLatency::cpu.data  10932618244                       # number of ReadReq miss ticks (Tick)
system.cpu.dcache.ReadReq.missLatency::total  10932618244                       # number of ReadReq miss ticks (Tick)
system.cpu.dcache.ReadReq.accesses::cpu.data     41173262                       # number of ReadReq accesses(hits+misses) (Count)
system.cpu.dcache.ReadReq.accesses::total     41173262                       # number of ReadReq accesses(hits+misses) (Count)
system.cpu.dcache.ReadReq.missRate::cpu.data     0.009470                       # miss rate for ReadReq accesses (Ratio)
system.cpu.dcache.ReadReq.missRate::total     0.009470                       # miss rate for ReadReq accesses (Ratio)
system.cpu.dcache.ReadReq.avgMissLatency::cpu.data 28038.105878                       # average ReadReq miss latency ((Tick/Count))
system.cpu.dcache.ReadReq.avgMissLatency::total 28038.105878                       # average ReadReq miss latency ((Tick/Count))
system.cpu.dcache.ReadReq.mshrHits::cpu.data          530                       # number of ReadReq MSHR hits (Count)
system.cpu.dcache.ReadReq.mshrHits::total          530                       # number of ReadReq MSHR hits (Count)
system.cpu.dcache.ReadReq.mshrMisses::cpu.data       389390                       # number of ReadReq MSHR misses (Count)
system.cpu.dcache.ReadReq.mshrMisses::total       389390                       # number of ReadReq MSHR misses (Count)
system.cpu.dcache.ReadReq.mshrMissLatency::cpu.data  10389808308                       # number of ReadReq MSHR miss ticks (Tick)
system.cpu.dcache.ReadReq.mshrMissLatency::total  10389808308                       # number of ReadReq MSHR miss ticks (Tick)
system.cpu.dcache.ReadReq.mshrMissRate::cpu.data     0.009457                       # mshr miss rate for ReadReq accesses (Ratio)
system.cpu.dcache.ReadReq.mshrMissRate::total     0.009457                       # mshr miss rate for ReadReq accesses (Ratio)
system.cpu.dcache.ReadReq.avgMshrMissLatency::cpu.data 26682.267927                       # average ReadReq mshr miss latency ((Tick/Count))
system.cpu.dcache.ReadReq.avgMshrMissLatency::total 26682.267927                       # average ReadReq mshr miss latency ((Tick/Count))
system.cpu.dcache.SoftPFReq.hits::cpu.data          503                       # number of SoftPFReq hits (Count)
system.cpu.dcache.SoftPFReq.hits::total           503                       # number of SoftPFReq hits (Count)
system.cpu.dcache.SoftPFReq.misses::cpu.data         7916                       # number of SoftPFReq misses (Count)
system.cpu.dcache.SoftPFReq.misses::total         7916                       # number of SoftPFReq misses (Count)
system.cpu.dcache.SoftPFReq.accesses::cpu.data         8419                       # number of SoftPFReq accesses(hits+misses) (Count)
system.cpu.dcache.SoftPFReq.accesses::total         8419                       # number of SoftPFReq accesses(hits+misses) (Count)
system.cpu.dcache.SoftPFReq.missRate::cpu.data     0.940254                       # miss rate for SoftPFReq accesses (Ratio)
system.cpu.dcache.SoftPFReq.missRate::total     0.940254                       # miss rate for SoftPFReq accesses (Ratio)
system.cpu.dcache.SoftPFReq.mshrMisses::cpu.data         7909                       # number of SoftPFReq MSHR misses (Count)
system.cpu.dcache.SoftPFReq.mshrMisses::total         7909                       # number of SoftPFReq MSHR misses (Count)
system.cpu.dcache.SoftPFReq.mshrMissLatency::cpu.data    732061847                       # number of SoftPFReq MSHR miss ticks (Tick)
system.cpu.dcache.SoftPFReq.mshrMissLatency::total    732061847                       # number of SoftPFReq MSHR miss ticks (Tick)
system.cpu.dcache.SoftPFReq.mshrMissRate::cpu.data     0.939423                       # mshr miss rate for SoftPFReq accesses (Ratio)
system.cpu.dcache.SoftPFReq.mshrMissRate::total     0.939423                       # mshr miss rate for SoftPFReq accesses (Ratio)
system.cpu.dcache.SoftPFReq.avgMshrMissLatency::cpu.data 92560.607789                       # average SoftPFReq mshr miss latency ((Tick/Count))
system.cpu.dcache.SoftPFReq.avgMshrMissLatency::total 92560.607789                       # average SoftPFReq mshr miss latency ((Tick/Count))
system.cpu.dcache.StoreCondReq.hits::cpu.data           38                       # number of StoreCondReq hits (Count)
system.cpu.dcache.StoreCondReq.hits::total           38                       # number of StoreCondReq hits (Count)
system.cpu.dcache.StoreCondReq.accesses::cpu.data           38                       # number of StoreCondReq accesses(hits+misses) (Count)
system.cpu.dcache.StoreCondReq.accesses::total           38                       # number of StoreCondReq accesses(hits+misses) (Count)
system.cpu.dcache.WriteReq.hits::cpu.data     10631597                       # number of WriteReq hits (Count)
system.cpu.dcache.WriteReq.hits::total       10631597                       # number of WriteReq hits (Count)
system.cpu.dcache.WriteReq.misses::cpu.data       345458                       # number of WriteReq misses (Count)
system.cpu.dcache.WriteReq.misses::total       345458                       # number of WriteReq misses (Count)
system.cpu.dcache.WriteReq.missLatency::cpu.data  17491361977                       # number of WriteReq miss ticks (Tick)
system.cpu.dcache.WriteReq.missLatency::total  17491361977                       # number of WriteReq miss ticks (Tick)
system.cpu.dcache.WriteReq.accesses::cpu.data     10977055                       # number of WriteReq accesses(hits+misses) (Count)
system.cpu.dcache.WriteReq.accesses::total     10977055                       # number of WriteReq accesses(hits+misses) (Count)
system.cpu.dcache.WriteReq.missRate::cpu.data     0.031471                       # miss rate for WriteReq accesses (Ratio)
system.cpu.dcache.WriteReq.missRate::total     0.031471                       # miss rate for WriteReq accesses (Ratio)
system.cpu.dcache.WriteReq.avgMissLatency::cpu.data 50632.383610                       # average WriteReq miss latency ((Tick/Count))
system.cpu.dcache.WriteReq.avgMissLatency::total 50632.383610                       # average WriteReq miss latency ((Tick/Count))
system.cpu.dcache.WriteReq.mshrHits::cpu.data        58127                       # number of WriteReq MSHR hits (Count)
system.cpu.dcache.WriteReq.mshrHits::total        58127                       # number of WriteReq MSHR hits (Count)
system.cpu.dcache.WriteReq.mshrMisses::cpu.data       287331                       # number of WriteReq MSHR misses (Count)
system.cpu.dcache.WriteReq.mshrMisses::total       287331                       # number of WriteReq MSHR misses (Count)
system.cpu.dcache.WriteReq.mshrMissLatency::cpu.data  15491419172                       # number of WriteReq MSHR miss ticks (Tick)
system.cpu.dcache.WriteReq.mshrMissLatency::total  15491419172                       # number of WriteReq MSHR miss ticks (Tick)
system.cpu.dcache.WriteReq.mshrMissRate::cpu.data     0.026176                       # mshr miss rate for WriteReq accesses (Ratio)
system.cpu.dcache.WriteReq.mshrMissRate::total     0.026176                       # mshr miss rate for WriteReq accesses (Ratio)
system.cpu.dcache.WriteReq.avgMshrMissLatency::cpu.data 53914.889699                       # average WriteReq mshr miss latency ((Tick/Count))
system.cpu.dcache.WriteReq.avgMshrMissLatency::total 53914.889699                       # average WriteReq mshr miss latency ((Tick/Count))
system.cpu.dcache.power_state.pwrStateResidencyTicks::UNDEFINED 109546112350                       # Cumulative time (in ticks) in various power states (Tick)
system.cpu.dcache.tags.tagsInUse          1010.043036                       # Average ticks per tags in use ((Tick/Count))
system.cpu.dcache.tags.totalRefs             52100147                       # Total number of references to valid blocks. (Count)
system.cpu.dcache.tags.sampledRefs             684633                       # Sample count of references to valid blocks. (Count)
system.cpu.dcache.tags.avgRefs              76.099380                       # Average number of references to valid blocks. ((Count/Count))
system.cpu.dcache.tags.warmupTick              192096                       # The tick when the warmup percentage was hit. (Tick)
system.cpu.dcache.tags.occupancies::cpu.data  1010.043036                       # Average occupied blocks per tick, per requestor ((Count/Tick))
system.cpu.dcache.tags.avgOccs::cpu.data     0.986370                       # Average percentage of cache occupancy ((Ratio/Tick))
system.cpu.dcache.tags.avgOccs::total        0.986370                       # Average percentage of cache occupancy ((Ratio/Tick))
system.cpu.dcache.tags.occupanciesTaskId::1024         1024                       # Occupied blocks per task id (Count)
system.cpu.dcache.tags.ageTaskId_1024::0          196                       # Occupied blocks per task id, per block age (Count)
system.cpu.dcache.tags.ageTaskId_1024::1          270                       # Occupied blocks per task id, per block age (Count)
system.cpu.dcache.tags.ageTaskId_1024::2          554                       # Occupied blocks per task id, per block age (Count)
system.cpu.dcache.tags.ageTaskId_1024::3            4                       # Occupied blocks per task id, per block age (Count)
system.cpu.dcache.tags.ratioOccsTaskId::1024            1                       # Ratio of occupied blocks and all blocks, per task id (Ratio)
system.cpu.dcache.tags.tagAccesses          105002257                       # Number of tag accesses (Count)
system.cpu.dcache.tags.dataAccesses         105002257                       # Number of data accesses (Count)
system.cpu.dcache.tags.power_state.pwrStateResidencyTicks::UNDEFINED 109546112350                       # Cumulative time (in ticks) in various power states (Tick)
system.cpu.fetch2.intInstructions            42703703                       # Number of integer instructions successfully decoded (Count)
system.cpu.fetch2.fpInstructions                    0                       # Number of floating point instructions successfully decoded (Count)
system.cpu.fetch2.vecInstructions                   0                       # Number of SIMD instructions successfully decoded (Count)
system.cpu.fetch2.loadInstructions           43555120                       # Number of memory load instructions successfully decoded (Count)
system.cpu.fetch2.storeInstructions          11057164                       # Number of memory store instructions successfully decoded (Count)
system.cpu.fetch2.amoInstructions                   0                       # Number of memory atomic instructions successfully decoded (Count)
system.cpu.icache.demandHits::cpu.inst       10235514                       # number of demand (read+write) hits (Count)
system.cpu.icache.demandHits::total          10235514                       # number of demand (read+write) hits (Count)
system.cpu.icache.overallHits::cpu.inst      10235514                       # number of overall hits (Count)
system.cpu.icache.overallHits::total         10235514                       # number of overall hits (Count)
system.cpu.icache.demandMisses::cpu.inst          767                       # number of demand (read+write) misses (Count)
system.cpu.icache.demandMisses::total             767                       # number of demand (read+write) misses (Count)
system.cpu.icache.overallMisses::cpu.inst          767                       # number of overall misses (Count)
system.cpu.icache.overallMisses::total            767                       # number of overall misses (Count)
system.cpu.icache.demandMissLatency::cpu.inst     61048509                       # number of demand (read+write) miss ticks (Tick)
system.cpu.icache.demandMissLatency::total     61048509                       # number of demand (read+write) miss ticks (Tick)
system.cpu.icache.overallMissLatency::cpu.inst     61048509                       # number of overall miss ticks (Tick)
system.cpu.icache.overallMissLatency::total     61048509                       # number of overall miss ticks (Tick)
system.cpu.icache.demandAccesses::cpu.inst     10236281                       # number of demand (read+write) accesses (Count)
system.cpu.icache.demandAccesses::total      10236281                       # number of demand (read+write) accesses (Count)
system.cpu.icache.overallAccesses::cpu.inst     10236281                       # number of overall (read+write) accesses (Count)
system.cpu.icache.overallAccesses::total     10236281                       # number of overall (read+write) accesses (Count)
system.cpu.icache.demandMissRate::cpu.inst     0.000075                       # miss rate for demand accesses (Ratio)
system.cpu.icache.demandMissRate::total      0.000075                       # miss rate for demand accesses (Ratio)
system.cpu.icache.overallMissRate::cpu.inst     0.000075                       # miss rate for overall accesses (Ratio)
system.cpu.icache.overallMissRate::total     0.000075                       # miss rate for overall accesses (Ratio)
system.cpu.icache.demandAvgMissLatency::cpu.inst 79593.883963                       # average overall miss latency ((Cycle/Count))
system.cpu.icache.demandAvgMissLatency::total 79593.883963                       # average overall miss latency ((Cycle/Count))
system.cpu.icache.overallAvgMissLatency::cpu.inst 79593.883963                       # average overall miss latency ((Cycle/Count))
system.cpu.icache.overallAvgMissLatency::total 79593.883963                       # average overall miss latency ((Cycle/Count))
system.cpu.icache.blockedCycles::no_mshrs            0                       # number of cycles access was blocked (Cycle)
system.cpu.icache.blockedCycles::no_targets            0                       # number of cycles access was blocked (Cycle)
system.cpu.icache.blockedCauses::no_mshrs            0                       # number of times access was blocked (Count)
system.cpu.icache.blockedCauses::no_targets            0                       # number of times access was blocked (Count)
system.cpu.icache.avgBlocked::no_mshrs            nan                       # average number of cycles each access was blocked ((Cycle/Count))
system.cpu.icache.avgBlocked::no_targets          nan                       # average number of cycles each access was blocked ((Cycle/Count))
system.cpu.icache.writebacks::writebacks          325                       # number of writebacks (Count)
system.cpu.icache.writebacks::total               325                       # number of writebacks (Count)
system.cpu.icache.demandMshrMisses::cpu.inst          767                       # number of demand (read+write) MSHR misses (Count)
system.cpu.icache.demandMshrMisses::total          767                       # number of demand (read+write) MSHR misses (Count)
system.cpu.icache.overallMshrMisses::cpu.inst          767                       # number of overall MSHR misses (Count)
system.cpu.icache.overallMshrMisses::total          767                       # number of overall MSHR misses (Count)
system.cpu.icache.demandMshrMissLatency::cpu.inst     60025331                       # number of demand (read+write) MSHR miss ticks (Tick)
system.cpu.icache.demandMshrMissLatency::total     60025331                       # number of demand (read+write) MSHR miss ticks (Tick)
system.cpu.icache.overallMshrMissLatency::cpu.inst     60025331                       # number of overall MSHR miss ticks (Tick)
system.cpu.icache.overallMshrMissLatency::total     60025331                       # number of overall MSHR miss ticks (Tick)
system.cpu.icache.demandMshrMissRate::cpu.inst     0.000075                       # mshr miss ratio for demand accesses (Ratio)
system.cpu.icache.demandMshrMissRate::total     0.000075                       # mshr miss ratio for demand accesses (Ratio)
system.cpu.icache.overallMshrMissRate::cpu.inst     0.000075                       # mshr miss ratio for overall accesses (Ratio)
system.cpu.icache.overallMshrMissRate::total     0.000075                       # mshr miss ratio for overall accesses (Ratio)
system.cpu.icache.demandAvgMshrMissLatency::cpu.inst 78259.883963                       # average overall mshr miss latency ((Cycle/Count))
system.cpu.icache.demandAvgMshrMissLatency::total 78259.883963                       # average overall mshr miss latency ((Cycle/Count))
system.cpu.icache.overallAvgMshrMissLatency::cpu.inst 78259.883963                       # average overall mshr miss latency ((Cycle/Count))
system.cpu.icache.overallAvgMshrMissLatency::total 78259.883963                       # average overall mshr miss latency ((Cycle/Count))
system.cpu.icache.replacements                    325                       # number of replacements (Count)
system.cpu.icache.ReadReq.hits::cpu.inst     10235514                       # number of ReadReq hits (Count)
system.cpu.icache.ReadReq.hits::total        10235514                       # number of ReadReq hits (Count)
system.cpu.icache.ReadReq.misses::cpu.inst          767                       # number of ReadReq misses (Count)
system.cpu.icache.ReadReq.misses::total           767                       # number of ReadReq misses (Count)
system.cpu.icache.ReadReq.missLatency::cpu.inst     61048509                       # number of ReadReq miss ticks (Tick)
system.cpu.icache.ReadReq.missLatency::total     61048509                       # number of ReadReq miss ticks (Tick)
system.cpu.icache.ReadReq.accesses::cpu.inst     10236281                       # number of ReadReq accesses(hits+misses) (Count)
system.cpu.icache.ReadReq.accesses::total     10236281                       # number of ReadReq accesses(hits+misses) (Count)
system.cpu.icache.ReadReq.missRate::cpu.inst     0.000075                       # miss rate for ReadReq accesses (Ratio)
system.cpu.icache.ReadReq.missRate::total     0.000075                       # miss rate for ReadReq accesses (Ratio)
system.cpu.icache.ReadReq.avgMissLatency::cpu.inst 79593.883963                       # average ReadReq miss latency ((Tick/Count))
system.cpu.icache.ReadReq.avgMissLatency::total 79593.883963                       # average ReadReq miss latency ((Tick/Count))
system.cpu.icache.ReadReq.mshrMisses::cpu.inst          767                       # number of ReadReq MSHR misses (Count)
system.cpu.icache.ReadReq.mshrMisses::total          767                       # number of ReadReq MSHR misses (Count)
system.cpu.icache.ReadReq.mshrMissLatency::cpu.inst     60025331                       # number of ReadReq MSHR miss ticks (Tick)
system.cpu.icache.ReadReq.mshrMissLatency::total     60025331                       # number of ReadReq MSHR miss ticks (Tick)
system.cpu.icache.ReadReq.mshrMissRate::cpu.inst     0.000075                       # mshr miss rate for ReadReq accesses (Ratio)
system.cpu.icache.ReadReq.mshrMissRate::total     0.000075                       # mshr miss rate for ReadReq accesses (Ratio)
system.cpu.icache.ReadReq.avgMshrMissLatency::cpu.inst 78259.883963                       # average ReadReq mshr miss latency ((Tick/Count))
system.cpu.icache.ReadReq.avgMshrMissLatency::total 78259.883963                       # average ReadReq mshr miss latency ((Tick/Count))
system.cpu.icache.power_state.pwrStateResidencyTicks::UNDEFINED 109546112350                       # Cumulative time (in ticks) in various power states (Tick)
system.cpu.icache.tags.tagsInUse           363.441339                       # Average ticks per tags in use ((Tick/Count))
system.cpu.icache.tags.totalRefs             10236281                       # Total number of references to valid blocks. (Count)
system.cpu.icache.tags.sampledRefs                767                       # Sample count of references to valid blocks. (Count)
system.cpu.icache.tags.avgRefs           13345.868318                       # Average number of references to valid blocks. ((Count/Count))
system.cpu.icache.tags.warmupTick               94047                       # The tick when the warmup percentage was hit. (Tick)
system.cpu.icache.tags.occupancies::cpu.inst   363.441339                       # Average occupied blocks per tick, per requestor ((Count/Tick))
system.cpu.icache.tags.avgOccs::cpu.inst     0.709846                       # Average percentage of cache occupancy ((Ratio/Tick))
system.cpu.icache.tags.avgOccs::total        0.709846                       # Average percentage of cache occupancy ((Ratio/Tick))
system.cpu.icache.tags.occupanciesTaskId::1024          442                       # Occupied blocks per task id (Count)
system.cpu.icache.tags.ageTaskId_1024::3          107                       # Occupied blocks per task id, per block age (Count)
system.cpu.icache.tags.ageTaskId_1024::4          335                       # Occupied blocks per task id, per block age (Count)
system.cpu.icache.tags.ratioOccsTaskId::1024     0.863281                       # Ratio of occupied blocks and all blocks, per task id (Ratio)
system.cpu.icache.tags.tagAccesses           20473329                       # Number of tag accesses (Count)
system.cpu.icache.tags.dataAccesses          20473329                       # Number of data accesses (Count)
system.cpu.icache.tags.power_state.pwrStateResidencyTicks::UNDEFINED 109546112350                       # Cumulative time (in ticks) in various power states (Tick)
system.cpu.mmu.dtb.instHits                         0                       # ITB inst hits (Count)
system.cpu.mmu.dtb.instMisses                       0                       # ITB inst misses (Count)
system.cpu.mmu.dtb.readHits                         0                       # DTB read hits (Count)
system.cpu.mmu.dtb.readMisses                       0                       # DTB read misses (Count)
system.cpu.mmu.dtb.writeHits                        0                       # DTB write hits (Count)
system.cpu.mmu.dtb.writeMisses                      0                       # DTB write misses (Count)
system.cpu.mmu.dtb.inserts                          0                       # Number of times an entry is inserted into the TLB (Count)
system.cpu.mmu.dtb.flushTlb                         0                       # Number of times complete TLB was flushed (Count)
system.cpu.mmu.dtb.flushTlbMva                      0                       # Number of times TLB was flushed by MVA (Count)
system.cpu.mmu.dtb.flushTlbMvaAsid                  0                       # Number of times TLB was flushed by MVA & ASID (Count)
system.cpu.mmu.dtb.flushTlbAsid                     0                       # Number of times TLB was flushed by ASID (Count)
system.cpu.mmu.dtb.flushedEntries                   0                       # Number of entries that have been flushed from TLB (Count)
system.cpu.mmu.dtb.alignFaults                      0                       # Number of TLB faults due to alignment restrictions (Count)
system.cpu.mmu.dtb.prefetchFaults                   0                       # Number of TLB faults due to prefetch (Count)
system.cpu.mmu.dtb.domainFaults                     0                       # Number of TLB faults due to domain restrictions (Count)
system.cpu.mmu.dtb.permsFaults                      0                       # Number of TLB faults due to permissions restrictions (Count)
system.cpu.mmu.dtb.readAccesses                     0                       # DTB read accesses (Count)
system.cpu.mmu.dtb.writeAccesses                    0                       # DTB write accesses (Count)
system.cpu.mmu.dtb.instAccesses                     0                       # ITB inst accesses (Count)
system.cpu.mmu.dtb.hits                             0                       # Total TLB (inst and data) hits (Count)
system.cpu.mmu.dtb.misses                           0                       # Total TLB (inst and data) misses (Count)
system.cpu.mmu.dtb.accesses                         0                       # Total TLB (inst and data) accesses (Count)
system.cpu.mmu.dtb_walker.walks                     0                       # Table walker walks requested (Count)
system.cpu.mmu.dtb_walker.requestOrigin_Requested::Data            0                       # Table walker requests started/completed, data/inst (Count)
system.cpu.mmu.dtb_walker.requestOrigin_Requested::Inst            0                       # Table walker requests started/completed, data/inst (Count)
system.cpu.mmu.dtb_walker.requestOrigin_Requested::total            0                       # Table walker requests started/completed, data/inst (Count)
system.cpu.mmu.dtb_walker.requestOrigin_Completed::Data            0                       # Table walker requests started/completed, data/inst (Count)
system.cpu.mmu.dtb_walker.requestOrigin_Completed::Inst            0                       # Table walker requests started/completed, data/inst (Count)
system.cpu.mmu.dtb_walker.requestOrigin_Completed::total            0                       # Table walker requests started/completed, data/inst (Count)
system.cpu.mmu.dtb_walker.requestOrigin::total            0                       # Table walker requests started/completed, data/inst (Count)
system.cpu.mmu.dtb_walker.power_state.pwrStateResidencyTicks::UNDEFINED 109546112350                       # Cumulative time (in ticks) in various power states (Tick)
system.cpu.mmu.itb.instHits                         0                       # ITB inst hits (Count)
system.cpu.mmu.itb.instMisses                       0                       # ITB inst misses (Count)
system.cpu.mmu.itb.readHits                         0                       # DTB read hits (Count)
system.cpu.mmu.itb.readMisses                       0                       # DTB read misses (Count)
system.cpu.mmu.itb.writeHits                        0                       # DTB write hits (Count)
system.cpu.mmu.itb.writeMisses                      0                       # DTB write misses (Count)
system.cpu.mmu.itb.inserts                          0                       # Number of times an entry is inserted into the TLB (Count)
system.cpu.mmu.itb.flushTlb                         0                       # Number of times complete TLB was flushed (Count)
system.cpu.mmu.itb.flushTlbMva                      0                       # Number of times TLB was flushed by MVA (Count)
system.cpu.mmu.itb.flushTlbMvaAsid                  0                       # Number of times TLB was flushed by MVA & ASID (Count)
system.cpu.mmu.itb.flushTlbAsid                     0                       # Number of times TLB was flushed by ASID (Count)
system.cpu.mmu.itb.flushedEntries                   0                       # Number of entries that have been flushed from TLB (Count)
system.cpu.mmu.itb.alignFaults                      0                       # Number of TLB faults due to alignment restrictions (Count)
system.cpu.mmu.itb.prefetchFaults                   0                       # Number of TLB faults due to prefetch (Count)
system.cpu.mmu.itb.domainFaults                     0                       # Number of TLB faults due to domain restrictions (Count)
system.cpu.mmu.itb.permsFaults                      0                       # Number of TLB faults due to permissions restrictions (Count)
system.cpu.mmu.itb.readAccesses                     0                       # DTB read accesses (Count)
system.cpu.mmu.itb.writeAccesses                    0                       # DTB write accesses (Count)
system.cpu.mmu.itb.instAccesses                     0                       # ITB inst accesses (Count)
system.cpu.mmu.itb.hits                             0                       # Total TLB (inst and data) hits (Count)
system.cpu.mmu.itb.misses                           0                       # Total TLB (inst and data) misses (Count)
system.cpu.mmu.itb.accesses                         0                       # Total TLB (inst and data) accesses (Count)
system.cpu.mmu.itb_walker.walks                     0                       # Table walker walks requested (Count)
system.cpu.mmu.itb_walker.requestOrigin_Requested::Data            0                       # Table walker requests started/completed, data/inst (Count)
system.cpu.mmu.itb_walker.requestOrigin_Requested::Inst            0                       # Table walker requests started/completed, data/inst (Count)
system.cpu.mmu.itb_walker.requestOrigin_Requested::total            0                       # Table walker requests started/completed, data/inst (Count)
system.cpu.mmu.itb_walker.requestOrigin_Completed::Data            0                       # Table walker requests started/completed, data/inst (Count)
system.cpu.mmu.itb_walker.requestOrigin_Completed::Inst            0                       # Table walker requests started/completed, data/inst (Count)
system.cpu.mmu.itb_walker.requestOrigin_Completed::total            0                       # Table walker requests started/completed, data/inst (Count)
system.cpu.mmu.itb_walker.requestOrigin::total            0                       # Table walker requests started/completed, data/inst (Count)
system.cpu.mmu.itb_walker.power_state.pwrStateResidencyTicks::UNDEFINED 109546112350                       # Cumulative time (in ticks) in various power states (Tick)
system.cpu.mmu.stage2_dtb.instHits                  0                       # ITB inst hits (Count)
system.cpu.mmu.stage2_dtb.instMisses                0                       # ITB inst misses (Count)
system.cpu.mmu.stage2_dtb.readHits                  0                       # DTB read hits (Count)
system.cpu.mmu.stage2_dtb.readMisses                0                       # DTB read misses (Count)
system.cpu.mmu.stage2_dtb.writeHits                 0                       # DTB write hits (Count)
system.cpu.mmu.stage2_dtb.writeMisses               0                       # DTB write misses (Count)
system.cpu.mmu.stage2_dtb.inserts                   0                       # Number of times an entry is inserted into the TLB (Count)
system.cpu.mmu.stage2_dtb.flushTlb                  0                       # Number of times complete TLB was flushed (Count)
system.cpu.mmu.stage2_dtb.flushTlbMva               0                       # Number of times TLB was flushed by MVA (Count)
system.cpu.mmu.stage2_dtb.flushTlbMvaAsid            0                       # Number of times TLB was flushed by MVA & ASID (Count)
system.cpu.mmu.stage2_dtb.flushTlbAsid              0                       # Number of times TLB was flushed by ASID (Count)
system.cpu.mmu.stage2_dtb.flushedEntries            0                       # Number of entries that have been flushed from TLB (Count)
system.cpu.mmu.stage2_dtb.alignFaults               0                       # Number of TLB faults due to alignment restrictions (Count)
system.cpu.mmu.stage2_dtb.prefetchFaults            0                       # Number of TLB faults due to prefetch (Count)
system.cpu.mmu.stage2_dtb.domainFaults              0                       # Number of TLB faults due to domain restrictions (Count)
system.cpu.mmu.stage2_dtb.permsFaults               0                       # Number of TLB faults due to permissions restrictions (Count)
system.cpu.mmu.stage2_dtb.readAccesses              0                       # DTB read accesses (Count)
system.cpu.mmu.stage2_dtb.writeAccesses             0                       # DTB write accesses (Count)
system.cpu.mmu.stage2_dtb.instAccesses              0                       # ITB inst accesses (Count)
system.cpu.mmu.stage2_dtb.hits                      0                       # Total TLB (inst and data) hits (Count)
system.cpu.mmu.stage2_dtb.misses                    0                       # Total TLB (inst and data) misses (Count)
system.cpu.mmu.stage2_dtb.accesses                  0                       # Total TLB (inst and data) accesses (Count)
system.cpu.mmu.stage2_dtb_walker.walks              0                       # Table walker walks requested (Count)
system.cpu.mmu.stage2_dtb_walker.requestOrigin_Requested::Data            0                       # Table walker requests started/completed, data/inst (Count)
system.cpu.mmu.stage2_dtb_walker.requestOrigin_Requested::Inst            0                       # Table walker requests started/completed, data/inst (Count)
system.cpu.mmu.stage2_dtb_walker.requestOrigin_Requested::total            0                       # Table walker requests started/completed, data/inst (Count)
system.cpu.mmu.stage2_dtb_walker.requestOrigin_Completed::Data            0                       # Table walker requests started/completed, data/inst (Count)
system.cpu.mmu.stage2_dtb_walker.requestOrigin_Completed::Inst            0                       # Table walker requests started/completed, data/inst (Count)
system.cpu.mmu.stage2_dtb_walker.requestOrigin_Completed::total            0                       # Table walker requests started/completed, data/inst (Count)
system.cpu.mmu.stage2_dtb_walker.requestOrigin::total            0                       # Table walker requests started/completed, data/inst (Count)
system.cpu.mmu.stage2_dtb_walker.power_state.pwrStateResidencyTicks::UNDEFINED 109546112350                       # Cumulative time (in ticks) in various power states (Tick)
system.cpu.mmu.stage2_itb.instHits                  0                       # ITB inst hits (Count)
system.cpu.mmu.stage2_itb.instMisses                0                       # ITB inst misses (Count)
system.cpu.mmu.stage2_itb.readHits                  0                       # DTB read hits (Count)
system.cpu.mmu.stage2_itb.readMisses                0                       # DTB read misses (Count)
system.cpu.mmu.stage2_itb.writeHits                 0                       # DTB write hits (Count)
system.cpu.mmu.stage2_itb.writeMisses               0                       # DTB write misses (Count)
system.cpu.mmu.stage2_itb.inserts                   0                       # Number of times an entry is inserted into the TLB (Count)
system.cpu.mmu.stage2_itb.flushTlb                  0                       # Number of times complete TLB was flushed (Count)
system.cpu.mmu.stage2_itb.flushTlbMva               0                       # Number of times TLB was flushed by MVA (Count)
system.cpu.mmu.stage2_itb.flushTlbMvaAsid            0                       # Number of times TLB was flushed by MVA & ASID (Count)
system.cpu.mmu.stage2_itb.flushTlbAsid              0                       # Number of times TLB was flushed by ASID (Count)
system.cpu.mmu.stage2_itb.flushedEntries            0                       # Number of entries that have been flushed from TLB (Count)
system.cpu.mmu.stage2_itb.alignFaults               0                       # Number of TLB faults due to alignment restrictions (Count)
system.cpu.mmu.stage2_itb.prefetchFaults            0                       # Number of TLB faults due to prefetch (Count)
system.cpu.mmu.stage2_itb.domainFaults              0                       # Number of TLB faults due to domain restrictions (Count)
system.cpu.mmu.stage2_itb.permsFaults               0                       # Number of TLB faults due to permissions restrictions (Count)
system.cpu.mmu.stage2_itb.readAccesses              0                       # DTB read accesses (Count)
system.cpu.mmu.stage2_itb.writeAccesses             0                       # DTB write accesses (Count)
system.cpu.mmu.stage2_itb.instAccesses              0                       # ITB inst accesses (Count)
system.cpu.mmu.stage2_itb.hits                      0                       # Total TLB (inst and data) hits (Count)
system.cpu.mmu.stage2_itb.misses                    0                       # Total TLB (inst and data) misses (Count)
system.cpu.mmu.stage2_itb.accesses                  0                       # Total TLB (inst and data) accesses (Count)
system.cpu.mmu.stage2_itb_walker.walks              0                       # Table walker walks requested (Count)
system.cpu.mmu.stage2_itb_walker.requestOrigin_Requested::Data            0                       # Table walker requests started/completed, data/inst (Count)
system.cpu.mmu.stage2_itb_walker.requestOrigin_Requested::Inst            0                       # Table walker requests started/completed, data/inst (Count)
system.cpu.mmu.stage2_itb_walker.requestOrigin_Requested::total            0                       # Table walker requests started/completed, data/inst (Count)
system.cpu.mmu.stage2_itb_walker.requestOrigin_Completed::Data            0                       # Table walker requests started/completed, data/inst (Count)
system.cpu.mmu.stage2_itb_walker.requestOrigin_Completed::Inst            0                       # Table walker requests started/completed, data/inst (Count)
system.cpu.mmu.stage2_itb_walker.requestOrigin_Completed::total            0                       # Table walker requests started/completed, data/inst (Count)
system.cpu.mmu.stage2_itb_walker.requestOrigin::total            0                       # Table walker requests started/completed, data/inst (Count)
system.cpu.mmu.stage2_itb_walker.power_state.pwrStateResidencyTicks::UNDEFINED 109546112350                       # Cumulative time (in ticks) in various power states (Tick)
system.cpu.power_state.pwrStateResidencyTicks::ON 109546112350                       # Cumulative time (in ticks) in various power states (Tick)
system.cpu.thread_0.numInsts                100000000                       # Number of Instructions committed (Count)
system.cpu.thread_0.numOps                  100199496                       # Number of Ops committed (Count)
system.cpu.thread_0.numMemRefs                      0                       # Number of Memory References (Count)
system.cpu.workload.numSyscalls                    85                       # Number of system calls (Count)
system.cpu_clk_domain.clock                       667                       # Clock period in ticks (Tick)
system.cpu_voltage_domain.voltage                   1                       # Voltage in Volts (Volt)
system.l2.demandHits::cpu.inst                     98                       # number of demand (read+write) hits (Count)
system.l2.demandHits::cpu.data                 483285                       # number of demand (read+write) hits (Count)
system.l2.demandHits::total                    483383                       # number of demand (read+write) hits (Count)
system.l2.overallHits::cpu.inst                    98                       # number of overall hits (Count)
system.l2.overallHits::cpu.data                483285                       # number of overall hits (Count)
system.l2.overallHits::total                   483383                       # number of overall hits (Count)
system.l2.demandMisses::cpu.inst                  669                       # number of demand (read+write) misses (Count)
system.l2.demandMisses::cpu.data               201349                       # number of demand (read+write) misses (Count)
system.l2.demandMisses::total                  202018                       # number of demand (read+write) misses (Count)
system.l2.overallMisses::cpu.inst                 669                       # number of overall misses (Count)
system.l2.overallMisses::cpu.data              201349                       # number of overall misses (Count)
system.l2.overallMisses::total                 202018                       # number of overall misses (Count)
system.l2.demandMissLatency::cpu.inst        57091865                       # number of demand (read+write) miss ticks (Tick)
system.l2.demandMissLatency::cpu.data     18468881826                       # number of demand (read+write) miss ticks (Tick)
system.l2.demandMissLatency::total        18525973691                       # number of demand (read+write) miss ticks (Tick)
system.l2.overallMissLatency::cpu.inst       57091865                       # number of overall miss ticks (Tick)
system.l2.overallMissLatency::cpu.data    18468881826                       # number of overall miss ticks (Tick)
system.l2.overallMissLatency::total       18525973691                       # number of overall miss ticks (Tick)
system.l2.demandAccesses::cpu.inst                767                       # number of demand (read+write) accesses (Count)
system.l2.demandAccesses::cpu.data             684634                       # number of demand (read+write) accesses (Count)
system.l2.demandAccesses::total                685401                       # number of demand (read+write) accesses (Count)
system.l2.overallAccesses::cpu.inst               767                       # number of overall (read+write) accesses (Count)
system.l2.overallAccesses::cpu.data            684634                       # number of overall (read+write) accesses (Count)
system.l2.overallAccesses::total               685401                       # number of overall (read+write) accesses (Count)
system.l2.demandMissRate::cpu.inst           0.872229                       # miss rate for demand accesses (Ratio)
system.l2.demandMissRate::cpu.data           0.294097                       # miss rate for demand accesses (Ratio)
system.l2.demandMissRate::total              0.294744                       # miss rate for demand accesses (Ratio)
system.l2.overallMissRate::cpu.inst          0.872229                       # miss rate for overall accesses (Ratio)
system.l2.overallMissRate::cpu.data          0.294097                       # miss rate for overall accesses (Ratio)
system.l2.overallMissRate::total             0.294744                       # miss rate for overall accesses (Ratio)
system.l2.demandAvgMissLatency::cpu.inst 85339.110613                       # average overall miss latency ((Cycle/Count))
system.l2.demandAvgMissLatency::cpu.data 91725.719154                       # average overall miss latency ((Cycle/Count))
system.l2.demandAvgMissLatency::total    91704.569350                       # average overall miss latency ((Cycle/Count))
system.l2.overallAvgMissLatency::cpu.inst 85339.110613                       # average overall miss latency ((Cycle/Count))
system.l2.overallAvgMissLatency::cpu.data 91725.719154                       # average overall miss latency ((Cycle/Count))
system.l2.overallAvgMissLatency::total   91704.569350                       # average overall miss latency ((Cycle/Count))
system.l2.blockedCycles::no_mshrs                   0                       # number of cycles access was blocked (Cycle)
system.l2.blockedCycles::no_targets                 0                       # number of cycles access was blocked (Cycle)
system.l2.blockedCauses::no_mshrs                   0                       # number of times access was blocked (Count)
system.l2.blockedCauses::no_targets                 0                       # number of times access was blocked (Count)
system.l2.avgBlocked::no_mshrs                    nan                       # average number of cycles each access was blocked ((Cycle/Count))
system.l2.avgBlocked::no_targets                  nan                       # average number of cycles each access was blocked ((Cycle/Count))
system.l2.writebacks::writebacks               111218                       # number of writebacks (Count)
system.l2.writebacks::total                    111218                       # number of writebacks (Count)
system.l2.demandMshrHits::cpu.data                  5                       # number of demand (read+write) MSHR hits (Count)
system.l2.demandMshrHits::total                     5                       # number of demand (read+write) MSHR hits (Count)
system.l2.overallMshrHits::cpu.data                 5                       # number of overall MSHR hits (Count)
system.l2.overallMshrHits::total                    5                       # number of overall MSHR hits (Count)
system.l2.demandMshrMisses::cpu.inst              669                       # number of demand (read+write) MSHR misses (Count)
system.l2.demandMshrMisses::cpu.data           201344                       # number of demand (read+write) MSHR misses (Count)
system.l2.demandMshrMisses::total              202013                       # number of demand (read+write) MSHR misses (Count)
system.l2.overallMshrMisses::cpu.inst             669                       # number of overall MSHR misses (Count)
system.l2.overallMshrMisses::cpu.data          201344                       # number of overall MSHR misses (Count)
system.l2.overallMshrMisses::total             202013                       # number of overall MSHR misses (Count)
system.l2.demandMshrMissLatency::cpu.inst     47966493                       # number of demand (read+write) MSHR miss ticks (Tick)
system.l2.demandMshrMissLatency::cpu.data  15722668880                       # number of demand (read+write) MSHR miss ticks (Tick)
system.l2.demandMshrMissLatency::total    15770635373                       # number of demand (read+write) MSHR miss ticks (Tick)
system.l2.overallMshrMissLatency::cpu.inst     47966493                       # number of overall MSHR miss ticks (Tick)
system.l2.overallMshrMissLatency::cpu.data  15722668880                       # number of overall MSHR miss ticks (Tick)
system.l2.overallMshrMissLatency::total   15770635373                       # number of overall MSHR miss ticks (Tick)
system.l2.demandMshrMissRate::cpu.inst       0.872229                       # mshr miss ratio for demand accesses (Ratio)
system.l2.demandMshrMissRate::cpu.data       0.294090                       # mshr miss ratio for demand accesses (Ratio)
system.l2.demandMshrMissRate::total          0.294737                       # mshr miss ratio for demand accesses (Ratio)
system.l2.overallMshrMissRate::cpu.inst      0.872229                       # mshr miss ratio for overall accesses (Ratio)
system.l2.overallMshrMissRate::cpu.data      0.294090                       # mshr miss ratio for overall accesses (Ratio)
system.l2.overallMshrMissRate::total         0.294737                       # mshr miss ratio for overall accesses (Ratio)
system.l2.demandAvgMshrMissLatency::cpu.inst 71698.793722                       # average overall mshr miss latency ((Cycle/Count))
system.l2.demandAvgMshrMissLatency::cpu.data 78088.589081                       # average overall mshr miss latency ((Cycle/Count))
system.l2.demandAvgMshrMissLatency::total 78067.428200                       # average overall mshr miss latency ((Cycle/Count))
system.l2.overallAvgMshrMissLatency::cpu.inst 71698.793722                       # average overall mshr miss latency ((Cycle/Count))
system.l2.overallAvgMshrMissLatency::cpu.data 78088.589081                       # average overall mshr miss latency ((Cycle/Count))
system.l2.overallAvgMshrMissLatency::total 78067.428200                       # average overall mshr miss latency ((Cycle/Count))
system.l2.replacements                         169375                       # number of replacements (Count)
system.l2.ReadCleanReq.hits::cpu.inst              98                       # number of ReadCleanReq hits (Count)
system.l2.ReadCleanReq.hits::total                 98                       # number of ReadCleanReq hits (Count)
system.l2.ReadCleanReq.misses::cpu.inst           669                       # number of ReadCleanReq misses (Count)
system.l2.ReadCleanReq.misses::total              669                       # number of ReadCleanReq misses (Count)
system.l2.ReadCleanReq.missLatency::cpu.inst     57091865                       # number of ReadCleanReq miss ticks (Tick)
system.l2.ReadCleanReq.missLatency::total     57091865                       # number of ReadCleanReq miss ticks (Tick)
system.l2.ReadCleanReq.accesses::cpu.inst          767                       # number of ReadCleanReq accesses(hits+misses) (Count)
system.l2.ReadCleanReq.accesses::total            767                       # number of ReadCleanReq accesses(hits+misses) (Count)
system.l2.ReadCleanReq.missRate::cpu.inst     0.872229                       # miss rate for ReadCleanReq accesses (Ratio)
system.l2.ReadCleanReq.missRate::total       0.872229                       # miss rate for ReadCleanReq accesses (Ratio)
system.l2.ReadCleanReq.avgMissLatency::cpu.inst 85339.110613                       # average ReadCleanReq miss latency ((Tick/Count))
system.l2.ReadCleanReq.avgMissLatency::total 85339.110613                       # average ReadCleanReq miss latency ((Tick/Count))
system.l2.ReadCleanReq.mshrMisses::cpu.inst          669                       # number of ReadCleanReq MSHR misses (Count)
system.l2.ReadCleanReq.mshrMisses::total          669                       # number of ReadCleanReq MSHR misses (Count)
system.l2.ReadCleanReq.mshrMissLatency::cpu.inst     47966493                       # number of ReadCleanReq MSHR miss ticks (Tick)
system.l2.ReadCleanReq.mshrMissLatency::total     47966493                       # number of ReadCleanReq MSHR miss ticks (Tick)
system.l2.ReadCleanReq.mshrMissRate::cpu.inst     0.872229                       # mshr miss rate for ReadCleanReq accesses (Ratio)
system.l2.ReadCleanReq.mshrMissRate::total     0.872229                       # mshr miss rate for ReadCleanReq accesses (Ratio)
system.l2.ReadCleanReq.avgMshrMissLatency::cpu.inst 71698.793722                       # average ReadCleanReq mshr miss latency ((Tick/Count))
system.l2.ReadCleanReq.avgMshrMissLatency::total 71698.793722                       # average ReadCleanReq mshr miss latency ((Tick/Count))
system.l2.ReadExReq.hits::cpu.data             151078                       # number of ReadExReq hits (Count)
system.l2.ReadExReq.hits::total                151078                       # number of ReadExReq hits (Count)
system.l2.ReadExReq.misses::cpu.data           136253                       # number of ReadExReq misses (Count)
system.l2.ReadExReq.misses::total              136253                       # number of ReadExReq misses (Count)
system.l2.ReadExReq.missLatency::cpu.data  12799010307                       # number of ReadExReq miss ticks (Tick)
system.l2.ReadExReq.missLatency::total    12799010307                       # number of ReadExReq miss ticks (Tick)
system.l2.ReadExReq.accesses::cpu.data         287331                       # number of ReadExReq accesses(hits+misses) (Count)
system.l2.ReadExReq.accesses::total            287331                       # number of ReadExReq accesses(hits+misses) (Count)
system.l2.ReadExReq.missRate::cpu.data       0.474202                       # miss rate for ReadExReq accesses (Ratio)
system.l2.ReadExReq.missRate::total          0.474202                       # miss rate for ReadExReq accesses (Ratio)
system.l2.ReadExReq.avgMissLatency::cpu.data 93935.622019                       # average ReadExReq miss latency ((Tick/Count))
system.l2.ReadExReq.avgMissLatency::total 93935.622019                       # average ReadExReq miss latency ((Tick/Count))
system.l2.ReadExReq.mshrMisses::cpu.data       136253                       # number of ReadExReq MSHR misses (Count)
system.l2.ReadExReq.mshrMisses::total          136253                       # number of ReadExReq MSHR misses (Count)
system.l2.ReadExReq.mshrMissLatency::cpu.data  10939753040                       # number of ReadExReq MSHR miss ticks (Tick)
system.l2.ReadExReq.mshrMissLatency::total  10939753040                       # number of ReadExReq MSHR miss ticks (Tick)
system.l2.ReadExReq.mshrMissRate::cpu.data     0.474202                       # mshr miss rate for ReadExReq accesses (Ratio)
system.l2.ReadExReq.mshrMissRate::total      0.474202                       # mshr miss rate for ReadExReq accesses (Ratio)
system.l2.ReadExReq.avgMshrMissLatency::cpu.data 80289.997578                       # average ReadExReq mshr miss latency ((Tick/Count))
system.l2.ReadExReq.avgMshrMissLatency::total 80289.997578                       # average ReadExReq mshr miss latency ((Tick/Count))
system.l2.ReadSharedReq.hits::cpu.data         332207                       # number of ReadSharedReq hits (Count)
system.l2.ReadSharedReq.hits::total            332207                       # number of ReadSharedReq hits (Count)
system.l2.ReadSharedReq.misses::cpu.data        65096                       # number of ReadSharedReq misses (Count)
system.l2.ReadSharedReq.misses::total           65096                       # number of ReadSharedReq misses (Count)
system.l2.ReadSharedReq.missLatency::cpu.data   5669871519                       # number of ReadSharedReq miss ticks (Tick)
system.l2.ReadSharedReq.missLatency::total   5669871519                       # number of ReadSharedReq miss ticks (Tick)
system.l2.ReadSharedReq.accesses::cpu.data       397303                       # number of ReadSharedReq accesses(hits+misses) (Count)
system.l2.ReadSharedReq.accesses::total        397303                       # number of ReadSharedReq accesses(hits+misses) (Count)
system.l2.ReadSharedReq.missRate::cpu.data     0.163845                       # miss rate for ReadSharedReq accesses (Ratio)
system.l2.ReadSharedReq.missRate::total      0.163845                       # miss rate for ReadSharedReq accesses (Ratio)
system.l2.ReadSharedReq.avgMissLatency::cpu.data 87100.152375                       # average ReadSharedReq miss latency ((Tick/Count))
system.l2.ReadSharedReq.avgMissLatency::total 87100.152375                       # average ReadSharedReq miss latency ((Tick/Count))
system.l2.ReadSharedReq.mshrHits::cpu.data            5                       # number of ReadSharedReq MSHR hits (Count)
system.l2.ReadSharedReq.mshrHits::total             5                       # number of ReadSharedReq MSHR hits (Count)
system.l2.ReadSharedReq.mshrMisses::cpu.data        65091                       # number of ReadSharedReq MSHR misses (Count)
system.l2.ReadSharedReq.mshrMisses::total        65091                       # number of ReadSharedReq MSHR misses (Count)
system.l2.ReadSharedReq.mshrMissLatency::cpu.data   4782915840                       # number of ReadSharedReq MSHR miss ticks (Tick)
system.l2.ReadSharedReq.mshrMissLatency::total   4782915840                       # number of ReadSharedReq MSHR miss ticks (Tick)
system.l2.ReadSharedReq.mshrMissRate::cpu.data     0.163832                       # mshr miss rate for ReadSharedReq accesses (Ratio)
system.l2.ReadSharedReq.mshrMissRate::total     0.163832                       # mshr miss rate for ReadSharedReq accesses (Ratio)
system.l2.ReadSharedReq.avgMshrMissLatency::cpu.data 73480.447988                       # average ReadSharedReq mshr miss latency ((Tick/Count))
system.l2.ReadSharedReq.avgMshrMissLatency::total 73480.447988                       # average ReadSharedReq mshr miss latency ((Tick/Count))
system.l2.WritebackClean.hits::writebacks          321                       # number of WritebackClean hits (Count)
system.l2.WritebackClean.hits::total              321                       # number of WritebackClean hits (Count)
system.l2.WritebackClean.accesses::writebacks          321                       # number of WritebackClean accesses(hits+misses) (Count)
system.l2.WritebackClean.accesses::total          321                       # number of WritebackClean accesses(hits+misses) (Count)
system.l2.WritebackDirty.hits::writebacks       607474                       # number of WritebackDirty hits (Count)
system.l2.WritebackDirty.hits::total           607474                       # number of WritebackDirty hits (Count)
system.l2.WritebackDirty.accesses::writebacks       607474                       # number of WritebackDirty accesses(hits+misses) (Count)
system.l2.WritebackDirty.accesses::total       607474                       # number of WritebackDirty accesses(hits+misses) (Count)
system.l2.power_state.pwrStateResidencyTicks::UNDEFINED 109546112350                       # Cumulative time (in ticks) in various power states (Tick)
system.l2.tags.tagsInUse                 32019.775418                       # Average ticks per tags in use ((Tick/Count))
system.l2.tags.totalRefs                      1369131                       # Total number of references to valid blocks. (Count)
system.l2.tags.sampledRefs                     202143                       # Sample count of references to valid blocks. (Count)
system.l2.tags.avgRefs                       6.773081                       # Average number of references to valid blocks. ((Count/Count))
system.l2.tags.warmupTick                       80000                       # The tick when the warmup percentage was hit. (Tick)
system.l2.tags.occupancies::writebacks      45.210823                       # Average occupied blocks per tick, per requestor ((Count/Tick))
system.l2.tags.occupancies::cpu.inst        80.194683                       # Average occupied blocks per tick, per requestor ((Count/Tick))
system.l2.tags.occupancies::cpu.data     31894.369912                       # Average occupied blocks per tick, per requestor ((Count/Tick))
system.l2.tags.avgOccs::writebacks           0.001380                       # Average percentage of cache occupancy ((Ratio/Tick))
system.l2.tags.avgOccs::cpu.inst             0.002447                       # Average percentage of cache occupancy ((Ratio/Tick))
system.l2.tags.avgOccs::cpu.data             0.973339                       # Average percentage of cache occupancy ((Ratio/Tick))
system.l2.tags.avgOccs::total                0.977166                       # Average percentage of cache occupancy ((Ratio/Tick))
system.l2.tags.occupanciesTaskId::1024          32768                       # Occupied blocks per task id (Count)
system.l2.tags.ageTaskId_1024::0                   66                       # Occupied blocks per task id, per block age (Count)
system.l2.tags.ageTaskId_1024::1                   31                       # Occupied blocks per task id, per block age (Count)
system.l2.tags.ageTaskId_1024::2                  960                       # Occupied blocks per task id, per block age (Count)
system.l2.tags.ageTaskId_1024::3                12396                       # Occupied blocks per task id, per block age (Count)
system.l2.tags.ageTaskId_1024::4                19315                       # Occupied blocks per task id, per block age (Count)
system.l2.tags.ratioOccsTaskId::1024                1                       # Ratio of occupied blocks and all blocks, per task id (Ratio)
system.l2.tags.tagAccesses                   11155239                       # Number of tag accesses (Count)
system.l2.tags.dataAccesses                  11155239                       # Number of data accesses (Count)
system.l2.tags.power_state.pwrStateResidencyTicks::UNDEFINED 109546112350                       # Cumulative time (in ticks) in various power states (Tick)
system.mem_ctrls.avgPriority_writebacks::samples    111218.00                       # Average QoS priority value for accepted requests (Count)
system.mem_ctrls.avgPriority_cpu.inst::samples       669.00                       # Average QoS priority value for accepted requests (Count)
system.mem_ctrls.avgPriority_cpu.data::samples    201312.00                       # Average QoS priority value for accepted requests (Count)
system.mem_ctrls.priorityMinLatency      0.000000018750                       # per QoS priority minimum request to response latency (Second)
system.mem_ctrls.priorityMaxLatency      0.004718876076                       # per QoS priority maximum request to response latency (Second)
[...]
system.mem_ctrls.dram.perBankWrBursts::8         6856                       # Per bank write bursts (Count)
system.mem_ctrls.dram.perBankWrBursts::9         6798                       # Per bank write bursts (Count)
system.mem_ctrls.dram.perBankWrBursts::10         6493                       # Per bank write bursts (Count)
system.mem_ctrls.dram.perBankWrBursts::11         6882                       # Per bank write bursts (Count)
system.mem_ctrls.dram.perBankWrBursts::12         6918                       # Per bank write bursts (Count)
system.mem_ctrls.dram.perBankWrBursts::13         7012                       # Per bank write bursts (Count)
system.mem_ctrls.dram.perBankWrBursts::14         6949                       # Per bank write bursts (Count)
system.mem_ctrls.dram.perBankWrBursts::15         7006                       # Per bank write bursts (Count)
system.mem_ctrls.dram.totQLat              2888647857                       # Total ticks spent queuing (Tick)
system.mem_ctrls.dram.totBusLat            1009905000                       # Total ticks spent in databus transfers (Tick)
system.mem_ctrls.dram.totMemAccLat         6675791607                       # Total ticks spent from burst creation until serviced by the DRAM (Tick)
system.mem_ctrls.dram.avgQLat                14301.58                       # Average queueing delay per DRAM burst ((Tick/Count))
system.mem_ctrls.dram.avgBusLat               5000.00                       # Average bus latency per DRAM burst ((Tick/Count))
system.mem_ctrls.dram.avgMemAccLat           33051.58                       # Average memory access latency per DRAM burst ((Tick/Count))
system.mem_ctrls.dram.readRowHits              136065                       # Number of row buffer hits during reads (Count)
system.mem_ctrls.dram.writeRowHits              70066                       # Number of row buffer hits during writes (Count)
system.mem_ctrls.dram.readRowHitRate            67.37                       # Row buffer hit rate for reads (Ratio)
system.mem_ctrls.dram.writeRowHitRate           63.01                       # Row buffer hit rate for writes (Ratio)
system.mem_ctrls.dram.bytesPerActivate::samples       107048                       # Bytes accessed per row activation (Byte)
system.mem_ctrls.dram.bytesPerActivate::mean   187.238024                       # Bytes accessed per row activation (Byte)
system.mem_ctrls.dram.bytesPerActivate::gmean   109.891514                       # Bytes accessed per row activation (Byte)
system.mem_ctrls.dram.bytesPerActivate::stdev   251.244963                       # Bytes accessed per row activation (Byte)
system.mem_ctrls.dram.bytesPerActivate::0-127        72264     67.51%     67.51% # Bytes accessed per row activation (Byte)
system.mem_ctrls.dram.bytesPerActivate::128-255        13084     12.22%     79.73% # Bytes accessed per row activation (Byte)
system.mem_ctrls.dram.bytesPerActivate::256-383         2605      2.43%     82.16% # Bytes accessed per row activation (Byte)
system.mem_ctrls.dram.bytesPerActivate::384-511         2963      2.77%     84.93% # Bytes accessed per row activation (Byte)
system.mem_ctrls.dram.bytesPerActivate::512-639         9024      8.43%     93.36% # Bytes accessed per row activation (Byte)
system.mem_ctrls.dram.bytesPerActivate::640-767          660      0.62%     93.98% # Bytes accessed per row activation (Byte)
system.mem_ctrls.dram.bytesPerActivate::768-895          514      0.48%     94.46% # Bytes accessed per row activation (Byte)
system.mem_ctrls.dram.bytesPerActivate::896-1023          325      0.30%     94.76% # Bytes accessed per row activation (Byte)
system.mem_ctrls.dram.bytesPerActivate::1024-1151         5609      5.24%    100.00% # Bytes accessed per row activation (Byte)
system.mem_ctrls.dram.bytesPerActivate::total       107048                       # Bytes accessed per row activation (Byte)
system.mem_ctrls.dram.bytesRead              12926784                       # Total number of bytes read from DRAM (Byte)
system.mem_ctrls.dram.bytesWritten            7116800                       # Total number of bytes written to DRAM (Byte)
system.mem_ctrls.dram.avgRdBW              118.003129                       # Average DRAM read bandwidth in MiBytes/s ((Byte/Second))
system.mem_ctrls.dram.avgWrBW               64.966249                       # Average DRAM write bandwidth in MiBytes/s ((Byte/Second))
system.mem_ctrls.dram.peakBW                 12800.00                       # Theoretical peak bandwidth in MiByte/s ((Byte/Second))
system.mem_ctrls.dram.busUtil                    1.43                       # Data bus utilization in percentage (Ratio)
system.mem_ctrls.dram.busUtilRead                0.92                       # Data bus utilization in percentage for reads (Ratio)
system.mem_ctrls.dram.busUtilWrite               0.51                       # Data bus utilization in percentage for writes (Ratio)
system.mem_ctrls.dram.pageHitRate               65.82                       # Row buffer hit rate, read and write combined (Ratio)
system.mem_ctrls.dram.power_state.pwrStateResidencyTicks::UNDEFINED 109546112350                       # Cumulative time (in ticks) in various power states (Tick)
system.mem_ctrls.dram.rank0.actEnergy       385288680                       # Energy for activate commands per rank (pJ) (Joule)
system.mem_ctrls.dram.rank0.preEnergy       204778200                       # Energy for precharge commands per rank (pJ) (Joule)
system.mem_ctrls.dram.rank0.readEnergy      723953160                       # Energy for read commands per rank (pJ) (Joule)
system.mem_ctrls.dram.rank0.writeEnergy     293812920                       # Energy for write commands per rank (pJ) (Joule)
system.mem_ctrls.dram.rank0.refreshEnergy 8647370160.000002                       # Energy for refresh commands per rank (pJ) (Joule)
system.mem_ctrls.dram.rank0.actBackEnergy  26541624210                       # Energy for active background per rank (pJ) (Joule)
system.mem_ctrls.dram.rank0.preBackEnergy  19714865760                       # Energy for precharge background per rank (pJ) (Joule)
system.mem_ctrls.dram.rank0.actPowerDownEnergy            0                       # Energy for active power-down per rank (pJ) (Joule)
system.mem_ctrls.dram.rank0.prePowerDownEnergy            0                       # Energy for precharge power-down per rank (pJ) (Joule)
system.mem_ctrls.dram.rank0.selfRefreshEnergy            0                       # Energy for self refresh per rank (pJ) (Joule)
system.mem_ctrls.dram.rank0.totalEnergy   56511693090                       # Total energy per rank (pJ) (Joule)
system.mem_ctrls.dram.rank0.averagePower   515.871279                       # Core power per rank (mW) (Watt)
system.mem_ctrls.dram.rank0.totalIdleTime            0                       # Total Idle time Per DRAM Rank (Tick)
system.mem_ctrls.dram.rank0.pwrStateTime::IDLE  50980326200                       # Time in different power states (Tick)
system.mem_ctrls.dram.rank0.pwrStateTime::REF   3657940000                       # Time in different power states (Tick)
system.mem_ctrls.dram.rank0.pwrStateTime::SREF            0                       # Time in different power states (Tick)
system.mem_ctrls.dram.rank0.pwrStateTime::PRE_PDN            0                       # Time in different power states (Tick)
system.mem_ctrls.dram.rank0.pwrStateTime::ACT  54907846150                       # Time in different power states (Tick)
system.mem_ctrls.dram.rank0.pwrStateTime::ACT_PDN            0                       # Time in different power states (Tick)
system.mem_ctrls.dram.rank1.actEnergy       379048320                       # Energy for activate commands per rank (pJ) (Joule)
system.mem_ctrls.dram.rank1.preEnergy       201468960                       # Energy for precharge commands per rank (pJ) (Joule)
system.mem_ctrls.dram.rank1.readEnergy      718191180                       # Energy for read commands per rank (pJ) (Joule)
system.mem_ctrls.dram.rank1.writeEnergy     286651080                       # Energy for write commands per rank (pJ) (Joule)
system.mem_ctrls.dram.rank1.refreshEnergy 8647370160.000002                       # Energy for refresh commands per rank (pJ) (Joule)
system.mem_ctrls.dram.rank1.actBackEnergy  25893511410                       # Energy for active background per rank (pJ) (Joule)
system.mem_ctrls.dram.rank1.preBackEnergy  20260644960                       # Energy for precharge background per rank (pJ) (Joule)
system.mem_ctrls.dram.rank1.actPowerDownEnergy            0                       # Energy for active power-down per rank (pJ) (Joule)
system.mem_ctrls.dram.rank1.prePowerDownEnergy            0                       # Energy for precharge power-down per rank (pJ) (Joule)
system.mem_ctrls.dram.rank1.selfRefreshEnergy            0                       # Energy for self refresh per rank (pJ) (Joule)
system.mem_ctrls.dram.rank1.totalEnergy   56386886070                       # Total energy per rank (pJ) (Joule)
system.mem_ctrls.dram.rank1.averagePower   514.731969                       # Core power per rank (mW) (Watt)
system.mem_ctrls.dram.rank1.totalIdleTime            0                       # Total Idle time Per DRAM Rank (Tick)
system.mem_ctrls.dram.rank1.pwrStateTime::IDLE  52403564960                       # Time in different power states (Tick)
system.mem_ctrls.dram.rank1.pwrStateTime::REF   3657940000                       # Time in different power states (Tick)
system.mem_ctrls.dram.rank1.pwrStateTime::SREF            0                       # Time in different power states (Tick)
system.mem_ctrls.dram.rank1.pwrStateTime::PRE_PDN            0                       # Time in different power states (Tick)
system.mem_ctrls.dram.rank1.pwrStateTime::ACT  53484607390                       # Time in different power states (Tick)
system.mem_ctrls.dram.rank1.pwrStateTime::ACT_PDN            0                       # Time in different power states (Tick)
system.mem_ctrls.power_state.pwrStateResidencyTicks::UNDEFINED 109546112350                       # Cumulative time (in ticks) in various power states (Tick)
system.membus.transDist::ReadResp               65760                       # Transaction distribution (Count)
system.membus.transDist::WritebackDirty        111218                       # Transaction distribution (Count)
system.membus.transDist::CleanEvict             57681                       # Transaction distribution (Count)
system.membus.transDist::ReadExReq             136252                       # Transaction distribution (Count)
system.membus.transDist::ReadExResp            136252                       # Transaction distribution (Count)
system.membus.transDist::ReadSharedReq          65760                       # Transaction distribution (Count)
system.membus.pktCount_system.l2.mem_side_port::system.mem_ctrls.port       572923                       # Packet count per connected requestor and responder (Count)
system.membus.pktCount::total                  572923                       # Packet count per connected requestor and responder (Count)
system.membus.pktSize_system.l2.mem_side_port::system.mem_ctrls.port     20046720                       # Cumulative packet size per connected requestor and responder (Byte)
system.membus.pktSize::total                 20046720                       # Cumulative packet size per connected requestor and responder (Byte)
system.membus.snoops                                0                       # Total snoops (Count)
system.membus.snoopTraffic                          0                       # Total snoop traffic (Byte)
system.membus.snoopFanout::samples             202012                       # Request fanout histogram
system.membus.snoopFanout::mean                     0                       # Request fanout histogram
system.membus.snoopFanout::stdev                    0                       # Request fanout histogram
system.membus.snoopFanout::underflows               0      0.00%      0.00% # Request fanout histogram
system.membus.snoopFanout::0                   202012    100.00%    100.00% # Request fanout histogram
system.membus.snoopFanout::1                        0      0.00%    100.00% # Request fanout histogram
system.membus.snoopFanout::overflows                0      0.00%    100.00% # Request fanout histogram
system.membus.snoopFanout::min_value                0                       # Request fanout histogram
system.membus.snoopFanout::max_value                0                       # Request fanout histogram
system.membus.snoopFanout::total               202012                       # Request fanout histogram
system.membus.power_state.pwrStateResidencyTicks::UNDEFINED 109546112350                       # Cumulative time (in ticks) in various power states (Tick)
system.membus.reqLayer0.occupancy           959136490                       # Layer occupancy (ticks) (Tick)
system.membus.reqLayer0.utilization               0.0                       # Layer utilization (Ratio)
system.membus.respLayer1.occupancy         1087318728                       # Layer occupancy (ticks) (Tick)
system.membus.respLayer1.utilization              0.0                       # Layer utilization (Ratio)
system.membus.snoop_filter.totRequests         370911                       # Total number of requests made to the snoop filter. (Count)
system.membus.snoop_filter.hitSingleRequests       168905                       # Number of requests hitting in the snoop filter with a single holder of the requested data. (Count)
system.membus.snoop_filter.hitMultiRequests            0                       # Number of requests hitting in the snoop filter with multiple (>1) holders of the requested data. (Count)
system.membus.snoop_filter.totSnoops                0                       # Total number of snoops made to the snoop filter. (Count)
system.membus.snoop_filter.hitSingleSnoops            0                       # Number of snoops hitting in the snoop filter with a single holder of the requested data. (Count)
system.membus.snoop_filter.hitMultiSnoops            0                       # Number of snoops hitting in the snoop filter with multiple (>1) holders of the requested data. (Count)
system.tol2bus.transDist::ReadResp             398070                       # Transaction distribution (Count)
system.tol2bus.transDist::WritebackDirty       718692                       # Transaction distribution (Count)
system.tol2bus.transDist::WritebackClean          325                       # Transaction distribution (Count)
system.tol2bus.transDist::CleanEvict           134292                       # Transaction distribution (Count)
system.tol2bus.transDist::ReadExReq            287331                       # Transaction distribution (Count)
system.tol2bus.transDist::ReadExResp           287330                       # Transaction distribution (Count)
system.tol2bus.transDist::ReadCleanReq            767                       # Transaction distribution (Count)
system.tol2bus.transDist::ReadSharedReq        397303                       # Transaction distribution (Count)
system.tol2bus.pktCount_system.cpu.icache.mem_side_port::system.l2.cpu_side_port         1859                       # Packet count per connected requestor and responder (Count)
system.tol2bus.pktCount_system.cpu.dcache.mem_side_port::system.l2.cpu_side_port      2052876                       # Packet count per connected requestor and responder (Count)
system.tol2bus.pktCount::total                2054735                       # Packet count per connected requestor and responder (Count)
system.tol2bus.pktSize_system.cpu.icache.mem_side_port::system.l2.cpu_side_port        69888                       # Cumulative packet size per connected requestor and responder (Byte)
system.tol2bus.pktSize_system.cpu.dcache.mem_side_port::system.l2.cpu_side_port     82694848                       # Cumulative packet size per connected requestor and responder (Byte)
system.tol2bus.pktSize::total                82764736                       # Cumulative packet size per connected requestor and responder (Byte)
system.tol2bus.snoops                          169375                       # Total snoops (Count)
system.tol2bus.snoopTraffic                   7117952                       # Total snoop traffic (Byte)
system.tol2bus.snoopFanout::samples            854776                       # Request fanout histogram
system.tol2bus.snoopFanout::mean             0.000791                       # Request fanout histogram
system.tol2bus.snoopFanout::stdev            0.028111                       # Request fanout histogram
system.tol2bus.snoopFanout::underflows              0      0.00%      0.00% # Request fanout histogram
system.tol2bus.snoopFanout::0                  854100     99.92%     99.92% # Request fanout histogram
system.tol2bus.snoopFanout::1                     676      0.08%    100.00% # Request fanout histogram
system.tol2bus.snoopFanout::2                       0      0.00%    100.00% # Request fanout histogram
system.tol2bus.snoopFanout::overflows               0      0.00%    100.00% # Request fanout histogram
system.tol2bus.snoopFanout::min_value               0                       # Request fanout histogram
system.tol2bus.snoopFanout::max_value               1                       # Request fanout histogram
system.tol2bus.snoopFanout::total              854776                       # Request fanout histogram
system.tol2bus.power_state.pwrStateResidencyTicks::UNDEFINED 109546112350                       # Cumulative time (in ticks) in various power states (Tick)
system.tol2bus.reqLayer0.occupancy         1724150311                       # Layer occupancy (ticks) (Tick)
system.tol2bus.reqLayer0.utilization              0.0                       # Layer utilization (Ratio)
system.tol2bus.respLayer0.occupancy           1534767                       # Layer occupancy (ticks) (Tick)
system.tol2bus.respLayer0.utilization             0.0                       # Layer utilization (Ratio)
system.tol2bus.respLayer1.occupancy        1369953963                       # Layer occupancy (ticks) (Tick)
system.tol2bus.respLayer1.utilization             0.0                       # Layer utilization (Ratio)
system.tol2bus.snoop_filter.totRequests       1369335                       # Total number of requests made to the snoop filter. (Count)
system.tol2bus.snoop_filter.hitSingleRequests       683936                       # Number of requests hitting in the snoop filter with a single holder of the requested data. (Count)
system.tol2bus.snoop_filter.hitMultiRequests          198                       # Number of requests hitting in the snoop filter with multiple (>1) holders of the requested data. (Count)
system.tol2bus.snoop_filter.totSnoops             476                       # Total number of snoops made to the snoop filter. (Count)
system.tol2bus.snoop_filter.hitSingleSnoops          476                       # Number of snoops hitting in the snoop filter with a single holder of the requested data. (Count)
system.tol2bus.snoop_filter.hitMultiSnoops            0                       # Number of snoops hitting in the snoop filter with multiple (>1) holders of the requested data. (Count)
system.voltage_domain.voltage                       1                       # Voltage in Volts (Volt)
system.workload.inst.arm                            0                       # number of arm instructions executed (Count)
system.workload.inst.quiesce                        0                       # number of quiesce instructions executed (Count)
system.cpu.idleCycles                        31355468                       # Total number of cycles that the object has spent stopped (Unspecified)
system.cpu.tickCycles                       132881582                       # Number of cycles that the object actually ticked (Unspecified)

---------- End Simulation Statistics   ----------
