
---------- Begin Simulation Statistics ----------
simSeconds                                   0.514053                       # Number of seconds simulated (Second)
simTicks                                 514052640000                       # Number of ticks simulated (Tick)
finalTick                                514052640000                       # Number of ticks from beginning of simulation (restored from checkpoints and never reset) (Tick)
simFreq                                  1000000000000                       # The number of ticks per simulated second ((Tick/Second))
hostSeconds                                    871.74                       # Real time elapsed on the host (Second)
hostTickRate                                589687503                       # The number of ticks simulated per host second (ticks/s) ((Tick/Second))
hostMemory                                     725488                       # Number of bytes of host memory used (Byte)
simInsts                                    100000000                       # Number of instructions simulated (Count)
simOps                                      184220346                       # Number of ops (including micro ops) simulated (Count)
hostInstRate                                   114713                       # Simulator instruction rate (inst/s) ((Count/Second))
hostOpRate                                     211325                       # Simulator op (including micro ops) rate (op/s) ((Count/Second))
system.clk_domain.clock                          1000                       # Clock period in ticks (Tick)
system.cpu.numCycles                       1028105280                       # Number of cpu cycles simulated (Cycle)
system.cpu.numWorkItemsStarted                      0                       # Number of work items this cpu started (Count)
system.cpu.numWorkItemsCompleted                    0                       # Number of work items this cpu completed (Count)
system.cpu.numInsts                         100000000                       # Number of instructions committed (Count)
system.cpu.numOps                           184220346                       # Number of ops (including micro ops) committed (Count)
system.cpu.numDiscardedOps                       4310                       # Number of ops (including micro ops) which were discarded before commit (Count)
system.cpu.numFetchSuspends                         0                       # Number of times Execute suspended instruction fetching (Count)
system.cpu.cpi                              10.281053                       # CPI: cycles per instruction ((Cycle/Count))
system.cpu.ipc                               0.097266                       # IPC: instructions per cycle ((Count/Cycle))
system.cpu.committedInstType_0::No_OpClass            0      0.00%      0.00% # Class of committed instruction (Count)
system.cpu.committedInstType_0::IntAlu       97640466     53.00%     53.00% # Class of committed instruction (Count)
system.cpu.committedInstType_0::IntMult        114699      0.06%     53.06% # Class of committed instruction (Count)
system.cpu.committedInstType_0::IntDiv              0      0.00%     53.06% # Class of committed instruction (Count)
system.cpu.committedInstType_0::FloatAdd            0      0.00%     53.06% # Class of committed instruction (Count)
system.cpu.committedInstType_0::FloatCmp            0      0.00%     53.06% # Class of committed instruction (Count)
system.cpu.committedInstType_0::FloatCvt            0      0.00%     53.06% # Class of committed instruction (Count)
system.cpu.committedInstType_0::FloatMult            0      0.00%     53.06% # Class of committed instruction (Count)
system.cpu.committedInstType_0::FloatMultAcc            0      0.00%     53.06% # Class of committed instruction (Count)
system.cpu.committedInstType_0::FloatDiv            0      0.00%     53.06% # Class of committed instruction (Count)
system.cpu.committedInstType_0::FloatMisc            0      0.00%     53.06% # Class of committed instruction (Count)
system.cpu.committedInstType_0::FloatSqrt            0      0.00%     53.06% # Class of committed instruction (Count)
system.cpu.committedInstType_0::SimdAdd             8      0.00%     53.06% # Class of committed instruction (Count)
system.cpu.committedInstType_0::SimdAddAcc            0      0.00%     53.06% # Class of committed instruction (Count)
system.cpu.committedInstType_0::SimdAlu             8      0.00%     53.06% # Class of committed instruction (Count)
system.cpu.committedInstType_0::SimdCmp             6      0.00%     53.06% # Class of committed instruction (Count)
system.cpu.committedInstType_0::SimdCvt             0      0.00%     53.06% # Class of committed instruction (Count)
system.cpu.committedInstType_0::SimdMisc            1      0.00%     53.06% # Class of committed instruction (Count)
system.cpu.committedInstType_0::SimdMult            0      0.00%     53.06% # Class of committed instruction (Count)
system.cpu.committedInstType_0::SimdMultAcc            0      0.00%     53.06% # Class of committed instruction (Count)
system.cpu.committedInstType_0::SimdShift            0      0.00%     53.06% # Class of committed instruction (Count)
system.cpu.committedInstType_0::SimdShiftAcc            0      0.00%     53.06% # Class of committed instruction (Count)
system.cpu.committedInstType_0::SimdDiv             0      0.00%     53.06% # Class of committed instruction (Count)
system.cpu.committedInstType_0::SimdSqrt            0      0.00%     53.06% # Class of committed instruction (Count)
system.cpu.committedInstType_0::SimdFloatAdd            0      0.00%     53.06% # Class of committed instruction (Count)
system.cpu.committedInstType_0::SimdFloatAlu            0      0.00%     53.06% # Class of committed instruction (Count)
system.cpu.committedInstType_0::SimdFloatCmp            0      0.00%     53.06% # Class of committed instruction (Count)
system.cpu.committedInstType_0::SimdFloatCvt            0      0.00%     53.06% # Class of committed instruction (Count)
system.cpu.committedInstType_0::SimdFloatDiv            0      0.00%     53.06% # Class of committed instruction (Count)
system.cpu.committedInstType_0::SimdFloatMisc            6      0.00%     53.06% # Class of committed instruction (Count)
system.cpu.committedInstType_0::SimdFloatMult            0      0.00%     53.06% # Class of committed instruction (Count)
system.cpu.committedInstType_0::SimdFloatMultAcc            0      0.00%     53.06% # Class of committed instruction (Count)
system.cpu.committedInstType_0::SimdFloatSqrt            0      0.00%     53.06% # Class of committed instruction (Count)
system.cpu.committedInstType_0::SimdReduceAdd            0      0.00%     53.06% # Class of committed instruction (Count)
system.cpu.committedInstType_0::SimdReduceAlu            0      0.00%     53.06% # Class of committed instruction (Count)
system.cpu.committedInstType_0::SimdReduceCmp            0      0.00%     53.06% # Class of committed instruction (Count)
system.cpu.committedInstType_0::SimdFloatReduceAdd            0      0.00%     53.06% # Class of committed instruction (Count)
system.cpu.committedInstType_0::SimdFloatReduceCmp            0      0.00%     53.06% # Class of committed instruction (Count)
system.cpu.committedInstType_0::SimdAes             0      0.00%     53.06% # Class of committed instruction (Count)
system.cpu.committedInstType_0::SimdAesMix            0      0.00%     53.06% # Class of committed instruction (Count)
system.cpu.committedInstType_0::SimdSha1Hash            0      0.00%     53.06% # Class of committed instruction (Count)
system.cpu.committedInstType_0::SimdSha1Hash2            0      0.00%     53.06% # Class of committed instruction (Count)
system.cpu.committedInstType_0::SimdSha256Hash            0      0.00%     53.06% # Class of committed instruction (Count)
system.cpu.committedInstType_0::SimdSha256Hash2            0      0.00%     53.06% # Class of committed instruction (Count)
system.cpu.committedInstType_0::SimdShaSigma2            0      0.00%     53.06% # Class of committed instruction (Count)
system.cpu.committedInstType_0::SimdShaSigma3            0      0.00%     53.06% # Class of committed instruction (Count)
system.cpu.committedInstType_0::SimdPredAlu            0      0.00%     53.06% # Class of committed instruction (Count)
system.cpu.committedInstType_0::MemRead       2082588      1.13%     54.19% # Class of committed instruction (Count)
system.cpu.committedInstType_0::MemWrite     84382564     45.81%    100.00% # Class of committed instruction (Count)
system.cpu.committedInstType_0::FloatMemRead            0      0.00%    100.00% # Class of committed instruction (Count)
system.cpu.committedInstType_0::FloatMemWrite            0      0.00%    100.00% # Class of committed instruction (Count)
system.cpu.committedInstType_0::IprAccess            0      0.00%    100.00% # Class of committed instruction (Count)
system.cpu.committedInstType_0::InstPrefetch            0      0.00%    100.00% # Class of committed instruction (Count)
system.cpu.committedInstType_0::total       184220346                       # Class of committed instruction (Count)
system.cpu.branchPred.lookups                10658362                       # Number of BP lookups (Count)
system.cpu.branchPred.condPredicted          10650102                       # Number of conditional branches predicted (Count)
system.cpu.branchPred.condIncorrect              1446                       # Number of conditional branches incorrect (Count)
system.cpu.branchPred.BTBLookups             10650400                       # Number of BTB lookups (Count)
system.cpu.branchPred.BTBHits                10649077                       # Number of BTB hits (Count)
system.cpu.branchPred.BTBHitRatio            0.999876                       # BTB Hit Ratio (Ratio)
system.cpu.branchPred.RASUsed                    2703                       # Number of times the RAS was used to get a target. (Count)
system.cpu.branchPred.RASIncorrect                  2                       # Number of incorrect RAS predictions. (Count)
system.cpu.branchPred.indirectLookups             195                       # Number of indirect predictor lookups. (Count)
system.cpu.branchPred.indirectHits                 22                       # Number of indirect target hits. (Count)
system.cpu.branchPred.indirectMisses              173                       # Number of indirect misses. (Count)
system.cpu.branchPred.indirectMispredicted          105                       # Number of mispredicted indirect branches. (Count)
system.cpu.dcache.demandHits::cpu.data       75854689                       # number of demand (read+write) hits (Count)
system.cpu.dcache.demandHits::total          75854689                       # number of demand (read+write) hits (Count)
system.cpu.dcache.overallHits::cpu.data      75854720                       # number of overall hits (Count)
system.cpu.dcache.overallHits::total         75854720                       # number of overall hits (Count)
system.cpu.dcache.demandMisses::cpu.data     10527342                       # number of demand (read+write) misses (Count)
system.cpu.dcache.demandMisses::total        10527342                       # number of demand (read+write) misses (Count)
system.cpu.dcache.overallMisses::cpu.data     10527382                       # number of overall misses (Count)
system.cpu.dcache.overallMisses::total       10527382                       # number of overall misses (Count)
system.cpu.dcache.demandMissLatency::cpu.data 877207657999                       # number of demand (read+write) miss ticks (Tick)
system.cpu.dcache.demandMissLatency::total 877207657999                       # number of demand (read+write) miss ticks (Tick)
system.cpu.dcache.overallMissLatency::cpu.data 877207657999                       # number of overall miss ticks (Tick)
system.cpu.dcache.overallMissLatency::total 877207657999                       # number of overall miss ticks (Tick)
system.cpu.dcache.demandAccesses::cpu.data     86382031                       # number of demand (read+write) accesses (Count)
system.cpu.dcache.demandAccesses::total      86382031                       # number of demand (read+write) accesses (Count)
system.cpu.dcache.overallAccesses::cpu.data     86382102                       # number of overall (read+write) accesses (Count)
system.cpu.dcache.overallAccesses::total     86382102                       # number of overall (read+write) accesses (Count)
system.cpu.dcache.demandMissRate::cpu.data     0.121870                       # miss rate for demand accesses (Ratio)
system.cpu.dcache.demandMissRate::total      0.121870                       # miss rate for demand accesses (Ratio)
system.cpu.dcache.overallMissRate::cpu.data     0.121870                       # miss rate for overall accesses (Ratio)
system.cpu.dcache.overallMissRate::total     0.121870                       # miss rate for overall accesses (Ratio)
system.cpu.dcache.demandAvgMissLatency::cpu.data 83326.603999                       # average overall miss latency ((Cycle/Count))
system.cpu.dcache.demandAvgMissLatency::total 83326.603999                       # average overall miss latency ((Cycle/Count))
system.cpu.dcache.overallAvgMissLatency::cpu.data 83326.287390                       # average overall miss latency ((Cycle/Count))
system.cpu.dcache.overallAvgMissLatency::total 83326.287390                       # average overall miss latency ((Cycle/Count))
system.cpu.dcache.blockedCycles::no_mshrs          387                       # number of cycles access was blocked (Cycle)
system.cpu.dcache.blockedCycles::no_targets            0                       # number of cycles access was blocked (Cycle)
system.cpu.dcache.blockedCauses::no_mshrs            6                       # number of times access was blocked (Count)
system.cpu.dcache.blockedCauses::no_targets            0                       # number of times access was blocked (Count)
system.cpu.dcache.avgBlocked::no_mshrs      64.500000                       # average number of cycles each access was blocked ((Cycle/Count))
system.cpu.dcache.avgBlocked::no_targets          nan                       # average number of cycles each access was blocked ((Cycle/Count))
system.cpu.dcache.writebacks::writebacks      5263919                       # number of writebacks (Count)
system.cpu.dcache.writebacks::total           5263919                       # number of writebacks (Count)
system.cpu.dcache.demandMshrHits::cpu.data      5260630                       # number of demand (read+write) MSHR hits (Count)
system.cpu.dcache.demandMshrHits::total       5260630                       # number of demand (read+write) MSHR hits (Count)
system.cpu.dcache.overallMshrHits::cpu.data      5260630                       # number of overall MSHR hits (Count)
system.cpu.dcache.overallMshrHits::total      5260630                       # number of overall MSHR hits (Count)
system.cpu.dcache.demandMshrMisses::cpu.data      5266712                       # number of demand (read+write) MSHR misses (Count)
system.cpu.dcache.demandMshrMisses::total      5266712                       # number of demand (read+write) MSHR misses (Count)
system.cpu.dcache.overallMshrMisses::cpu.data      5266746                       # number of overall MSHR misses (Count)
system.cpu.dcache.overallMshrMisses::total      5266746                       # number of overall MSHR misses (Count)
system.cpu.dcache.demandMshrMissLatency::cpu.data 432168873000                       # number of demand (read+write) MSHR miss ticks (Tick)
system.cpu.dcache.demandMshrMissLatency::total 432168873000                       # number of demand (read+write) MSHR miss ticks (Tick)
system.cpu.dcache.overallMshrMissLatency::cpu.data 432171711000                       # number of overall MSHR miss ticks (Tick)
system.cpu.dcache.overallMshrMissLatency::total 432171711000                       # number of overall MSHR miss ticks (Tick)
system.cpu.dcache.demandMshrMissRate::cpu.data     0.060970                       # mshr miss ratio for demand accesses (Ratio)
system.cpu.dcache.demandMshrMissRate::total     0.060970                       # mshr miss ratio for demand accesses (Ratio)
system.cpu.dcache.overallMshrMissRate::cpu.data     0.060970                       # mshr miss ratio for overall accesses (Ratio)
system.cpu.dcache.overallMshrMissRate::total     0.060970                       # mshr miss ratio for overall accesses (Ratio)
system.cpu.dcache.demandAvgMshrMissLatency::cpu.data 82056.674639                       # average overall mshr miss latency ((Cycle/Count))
system.cpu.dcache.demandAvgMshrMissLatency::total 82056.674639                       # average overall mshr miss latency ((Cycle/Count))
system.cpu.dcache.overallAvgMshrMissLatency::cpu.data 82056.683766                       # average overall mshr miss latency ((Cycle/Count))
system.cpu.dcache.overallAvgMshrMissLatency::total 82056.683766                       # average overall mshr miss latency ((Cycle/Count))
system.cpu.dcache.replacements                5265723                       # number of replacements (Count)
system.cpu.dcache.LoadLockedReq.hits::cpu.data           33                       # number of LoadLockedReq hits (Count)
system.cpu.dcache.LoadLockedReq.hits::total           33                       # number of LoadLockedReq hits (Count)
system.cpu.dcache.LoadLockedReq.misses::cpu.data            1                       # number of LoadLockedReq misses (Count)
system.cpu.dcache.LoadLockedReq.misses::total            1                       # number of LoadLockedReq misses (Count)
system.cpu.dcache.LoadLockedReq.missLatency::cpu.data       100000                       # number of LoadLockedReq miss ticks (Tick)
system.cpu.dcache.LoadLockedReq.missLatency::total       100000                       # number of LoadLockedReq miss ticks (Tick)
system.cpu.dcache.LoadLockedReq.accesses::cpu.data           34                       # number of LoadLockedReq accesses(hits+misses) (Count)
system.cpu.dcache.LoadLockedReq.accesses::total           34                       # number of LoadLockedReq accesses(hits+misses) (Count)
system.cpu.dcache.LoadLockedReq.missRate::cpu.data     0.029412                       # miss rate for LoadLockedReq accesses (Ratio)
system.cpu.dcache.LoadLockedReq.missRate::total     0.029412                       # miss rate for LoadLockedReq accesses (Ratio)
system.cpu.dcache.LoadLockedReq.avgMissLatency::cpu.data       100000                       # average LoadLockedReq miss latency ((Tick/Count))
system.cpu.dcache.LoadLockedReq.avgMissLatency::total       100000                       # average LoadLockedReq miss latency ((Tick/Count))
system.cpu.dcache.LoadLockedReq.mshrMisses::cpu.data            1                       # number of LoadLockedReq MSHR misses (Count)
system.cpu.dcache.LoadLockedReq.mshrMisses::total            1                       # number of LoadLockedReq MSHR misses (Count)
system.cpu.dcache.LoadLockedReq.mshrMissLatency::cpu.data        99000                       # number of LoadLockedReq MSHR miss ticks (Tick)
system.cpu.dcache.LoadLockedReq.mshrMissLatency::total        99000                       # number of LoadLockedReq MSHR miss ticks (Tick)
system.cpu.dcache.LoadLockedReq.mshrMissRate::cpu.data     0.029412                       # mshr miss rate for LoadLockedReq accesses (Ratio)
system.cpu.dcache.LoadLockedReq.mshrMissRate::total     0.029412                       # mshr miss rate for LoadLockedReq accesses (Ratio)
system.cpu.dcache.LoadLockedReq.avgMshrMissLatency::cpu.data        99000                       # average LoadLockedReq mshr miss latency ((Tick/Count))
system.cpu.dcache.LoadLockedReq.avgMshrMissLatency::total        99000                       # average LoadLockedReq mshr miss latency ((Tick/Count))
system.cpu.dcache.ReadReq.hits::cpu.data      2041635                       # number of ReadReq hits (Count)
system.cpu.dcache.ReadReq.hits::total         2041635                       # number of ReadReq hits (Count)
system.cpu.dcache.ReadReq.misses::cpu.data         2136                       # number of ReadReq misses (Count)
system.cpu.dcache.ReadReq.misses::total          2136                       # number of ReadReq misses (Count)
system.cpu.dcache.ReadReq.missLatency::cpu.data     48852000                       # number of ReadReq miss ticks (Tick)
system.cpu.dcache.ReadReq.missLatency::total     48852000                       # number of ReadReq miss ticks (Tick)
system.cpu.dcache.ReadReq.accesses::cpu.data      2043771                       # number of ReadReq accesses(hits+misses) (Count)
system.cpu.dcache.ReadReq.accesses::total      2043771                       # number of ReadReq accesses(hits+misses) (Count)
system.cpu.dcache.ReadReq.missRate::cpu.data     0.001045                       # miss rate for ReadReq accesses (Ratio)
system.cpu.dcache.ReadReq.missRate::total     0.001045                       # miss rate for ReadReq accesses (Ratio)
system.cpu.dcache.ReadReq.avgMissLatency::cpu.data 22870.786517                       # average ReadReq miss latency ((Tick/Count))
system.cpu.dcache.ReadReq.avgMissLatency::total 22870.786517                       # average ReadReq miss latency ((Tick/Count))
system.cpu.dcache.ReadReq.mshrHits::cpu.data           37                       # number of ReadReq MSHR hits (Count)
system.cpu.dcache.ReadReq.mshrHits::total           37                       # number of ReadReq MSHR hits (Count)
system.cpu.dcache.ReadReq.mshrMisses::cpu.data         2099                       # number of ReadReq MSHR misses (Count)
system.cpu.dcache.ReadReq.mshrMisses::total         2099                       # number of ReadReq MSHR misses (Count)
system.cpu.dcache.ReadReq.mshrMissLatency::cpu.data     44788500                       # number of ReadReq MSHR miss ticks (Tick)
system.cpu.dcache.ReadReq.mshrMissLatency::total     44788500                       # number of ReadReq MSHR miss ticks (Tick)
system.cpu.dcache.ReadReq.mshrMissRate::cpu.data     0.001027                       # mshr miss rate for ReadReq accesses (Ratio)
system.cpu.dcache.ReadReq.mshrMissRate::total     0.001027                       # mshr miss rate for ReadReq accesses (Ratio)
system.cpu.dcache.ReadReq.avgMshrMissLatency::cpu.data 21338.018104                       # average ReadReq mshr miss latency ((Tick/Count))
system.cpu.dcache.ReadReq.avgMshrMissLatency::total 21338.018104                       # average ReadReq mshr miss latency ((Tick/Count))
system.cpu.dcache.SoftPFReq.hits::cpu.data           31                       # number of SoftPFReq hits (Count)
system.cpu.dcache.SoftPFReq.hits::total            31                       # number of SoftPFReq hits (Count)
system.cpu.dcache.SoftPFReq.misses::cpu.data           40                       # number of SoftPFReq misses (Count)
system.cpu.dcache.SoftPFReq.misses::total           40                       # number of SoftPFReq misses (Count)
system.cpu.dcache.SoftPFReq.accesses::cpu.data           71                       # number of SoftPFReq accesses(hits+misses) (Count)
system.cpu.dcache.SoftPFReq.accesses::total           71                       # number of SoftPFReq accesses(hits+misses) (Count)
system.cpu.dcache.SoftPFReq.missRate::cpu.data     0.563380                       # miss rate for SoftPFReq accesses (Ratio)
system.cpu.dcache.SoftPFReq.missRate::total     0.563380                       # miss rate for SoftPFReq accesses (Ratio)
system.cpu.dcache.SoftPFReq.mshrMisses::cpu.data           34                       # number of SoftPFReq MSHR misses (Count)
system.cpu.dcache.SoftPFReq.mshrMisses::total           34                       # number of SoftPFReq MSHR misses (Count)
system.cpu.dcache.SoftPFReq.mshrMissLatency::cpu.data      2838000                       # number of SoftPFReq MSHR miss ticks (Tick)
system.cpu.dcache.SoftPFReq.mshrMissLatency::total      2838000                       # number of SoftPFReq MSHR miss ticks (Tick)
system.cpu.dcache.SoftPFReq.mshrMissRate::cpu.data     0.478873                       # mshr miss rate for SoftPFReq accesses (Ratio)
system.cpu.dcache.SoftPFReq.mshrMissRate::total     0.478873                       # mshr miss rate for SoftPFReq accesses (Ratio)
system.cpu.dcache.SoftPFReq.avgMshrMissLatency::cpu.data 83470.588235                       # average SoftPFReq mshr miss latency ((Tick/Count))
system.cpu.dcache.SoftPFReq.avgMshrMissLatency::total 83470.588235                       # average SoftPFReq mshr miss latency ((Tick/Count))
system.cpu.dcache.StoreCondReq.hits::cpu.data           34                       # number of StoreCondReq hits (Count)
system.cpu.dcache.StoreCondReq.hits::total           34                       # number of StoreCondReq hits (Count)
system.cpu.dcache.StoreCondReq.accesses::cpu.data           34                       # number of StoreCondReq accesses(hits+misses) (Count)
system.cpu.dcache.StoreCondReq.accesses::total           34                       # number of StoreCondReq accesses(hits+misses) (Count)
system.cpu.dcache.WriteReq.hits::cpu.data     73813054                       # number of WriteReq hits (Count)
system.cpu.dcache.WriteReq.hits::total       73813054                       # number of WriteReq hits (Count)
system.cpu.dcache.WriteReq.misses::cpu.data     10525206                       # number of WriteReq misses (Count)
system.cpu.dcache.WriteReq.misses::total     10525206                       # number of WriteReq misses (Count)
system.cpu.dcache.WriteReq.missLatency::cpu.data 877158805999                       # number of WriteReq miss ticks (Tick)
system.cpu.dcache.WriteReq.missLatency::total 877158805999                       # number of WriteReq miss ticks (Tick)
system.cpu.dcache.WriteReq.accesses::cpu.data     84338260                       # number of WriteReq accesses(hits+misses) (Count)
system.cpu.dcache.WriteReq.accesses::total     84338260                       # number of WriteReq accesses(hits+misses) (Count)
system.cpu.dcache.WriteReq.missRate::cpu.data     0.124798                       # miss rate for WriteReq accesses (Ratio)
system.cpu.dcache.WriteReq.missRate::total     0.124798                       # miss rate for WriteReq accesses (Ratio)
system.cpu.dcache.WriteReq.avgMissLatency::cpu.data 83338.872987                       # average WriteReq miss latency ((Tick/Count))
system.cpu.dcache.WriteReq.avgMissLatency::total 83338.872987                       # average WriteReq miss latency ((Tick/Count))
system.cpu.dcache.WriteReq.mshrHits::cpu.data      5260593                       # number of WriteReq MSHR hits (Count)
system.cpu.dcache.WriteReq.mshrHits::total      5260593                       # number of WriteReq MSHR hits (Count)
system.cpu.dcache.WriteReq.mshrMisses::cpu.data      5264613                       # number of WriteReq MSHR misses (Count)
system.cpu.dcache.WriteReq.mshrMisses::total      5264613                       # number of WriteReq MSHR misses (Count)
system.cpu.dcache.WriteReq.mshrMissLatency::cpu.data 432124084500                       # number of WriteReq MSHR miss ticks (Tick)
system.cpu.dcache.WriteReq.mshrMissLatency::total 432124084500                       # number of WriteReq MSHR miss ticks (Tick)
system.cpu.dcache.WriteReq.mshrMissRate::cpu.data     0.062423                       # mshr miss rate for WriteReq accesses (Ratio)
system.cpu.dcache.WriteReq.mshrMissRate::total     0.062423                       # mshr miss rate for WriteReq accesses (Ratio)
system.cpu.dcache.WriteReq.avgMshrMissLatency::cpu.data 82080.883153                       # average WriteReq mshr miss latency ((Tick/Count))
system.cpu.dcache.WriteReq.avgMshrMissLatency::total 82080.883153                       # average WriteReq mshr miss latency ((Tick/Count))
system.cpu.dcache.power_state.pwrStateResidencyTicks::UNDEFINED 514052640000                       # Cumulative time (in ticks) in various power states (Tick)
system.cpu.dcache.tags.tagsInUse          1023.174467                       # Average ticks per tags in use ((Tick/Count))
system.cpu.dcache.tags.totalRefs             81121534                       # Total number of references to valid blocks. (Count)
system.cpu.dcache.tags.sampledRefs            5266747                       # Sample count of references to valid blocks. (Count)
system.cpu.dcache.tags.avgRefs              15.402588                       # Average number of references to valid blocks. ((Count/Count))
system.cpu.dcache.tags.warmupTick              176500                       # The tick when the warmup percentage was hit. (Tick)
system.cpu.dcache.tags.occupancies::cpu.data  1023.174467                       # Average occupied blocks per tick, per requestor ((Count/Tick))
system.cpu.dcache.tags.avgOccs::cpu.data     0.999194                       # Average percentage of cache occupancy ((Ratio/Tick))
system.cpu.dcache.tags.avgOccs::total        0.999194                       # Average percentage of cache occupancy ((Ratio/Tick))
system.cpu.dcache.tags.occupanciesTaskId::1024         1024                       # Occupied blocks per task id (Count)
system.cpu.dcache.tags.ageTaskId_1024::0          104                       # Occupied blocks per task id, per block age (Count)
system.cpu.dcache.tags.ageTaskId_1024::1          920                       # Occupied blocks per task id, per block age (Count)
system.cpu.dcache.tags.ratioOccsTaskId::1024            1                       # Ratio of occupied blocks and all blocks, per task id (Ratio)
system.cpu.dcache.tags.tagAccesses           91648917                       # Number of tag accesses (Count)
system.cpu.dcache.tags.dataAccesses          91648917                       # Number of data accesses (Count)
system.cpu.dcache.tags.power_state.pwrStateResidencyTicks::UNDEFINED 514052640000                       # Cumulative time (in ticks) in various power states (Tick)
system.cpu.fetch2.intInstructions            45069728                       # Number of integer instructions successfully decoded (Count)
system.cpu.fetch2.fpInstructions                    0                       # Number of floating point instructions successfully decoded (Count)
system.cpu.fetch2.vecInstructions                   0                       # Number of SIMD instructions successfully decoded (Count)
system.cpu.fetch2.loadInstructions            2086141                       # Number of memory load instructions successfully decoded (Count)
system.cpu.fetch2.storeInstructions            169140                       # Number of memory store instructions successfully decoded (Count)
system.cpu.fetch2.amoInstructions                   0                       # Number of memory atomic instructions successfully decoded (Count)
system.cpu.icache.demandHits::cpu.inst       32133994                       # number of demand (read+write) hits (Count)
system.cpu.icache.demandHits::total          32133994                       # number of demand (read+write) hits (Count)
system.cpu.icache.overallHits::cpu.inst      32133994                       # number of overall hits (Count)
system.cpu.icache.overallHits::total         32133994                       # number of overall hits (Count)
system.cpu.icache.demandMisses::cpu.inst          646                       # number of demand (read+write) misses (Count)
system.cpu.icache.demandMisses::total             646                       # number of demand (read+write) misses (Count)
system.cpu.icache.overallMisses::cpu.inst          646                       # number of overall misses (Count)
system.cpu.icache.overallMisses::total            646                       # number of overall misses (Count)
system.cpu.icache.demandMissLatency::cpu.inst     48285000                       # number of demand (read+write) miss ticks (Tick)
system.cpu.icache.demandMissLatency::total     48285000                       # number of demand (read+write) miss ticks (Tick)
system.cpu.icache.overallMissLatency::cpu.inst     48285000                       # number of overall miss ticks (Tick)
system.cpu.icache.overallMissLatency::total     48285000                       # number of overall miss ticks (Tick)
system.cpu.icache.demandAccesses::cpu.inst     32134640                       # number of demand (read+write) accesses (Count)
system.cpu.icache.demandAccesses::total      32134640                       # number of demand (read+write) accesses (Count)
system.cpu.icache.overallAccesses::cpu.inst     32134640                       # number of overall (read+write) accesses (Count)
system.cpu.icache.overallAccesses::total     32134640                       # number of overall (read+write) accesses (Count)
system.cpu.icache.demandMissRate::cpu.inst     0.000020                       # miss rate for demand accesses (Ratio)
system.cpu.icache.demandMissRate::total      0.000020                       # miss rate for demand accesses (Ratio)
system.cpu.icache.overallMissRate::cpu.inst     0.000020                       # miss rate for overall accesses (Ratio)
system.cpu.icache.overallMissRate::total     0.000020                       # miss rate for overall accesses (Ratio)
system.cpu.icache.demandAvgMissLatency::cpu.inst 74744.582043                       # average overall miss latency ((Cycle/Count))
system.cpu.icache.demandAvgMissLatency::total 74744.582043                       # average overall miss latency ((Cycle/Count))
system.cpu.icache.overallAvgMissLatency::cpu.inst 74744.582043                       # average overall miss latency ((Cycle/Count))
system.cpu.icache.overallAvgMissLatency::total 74744.582043                       # average overall miss latency ((Cycle/Count))
system.cpu.icache.blockedCycles::no_mshrs            0                       # number of cycles access was blocked (Cycle)
system.cpu.icache.blockedCycles::no_targets            0                       # number of cycles access was blocked (Cycle)
system.cpu.icache.blockedCauses::no_mshrs            0                       # number of times access was blocked (Count)
system.cpu.icache.blockedCauses::no_targets            0                       # number of times access was blocked (Count)
system.cpu.icache.avgBlocked::no_mshrs            nan                       # average number of cycles each access was blocked ((Cycle/Count))
system.cpu.icache.avgBlocked::no_targets          nan                       # average number of cycles each access was blocked ((Cycle/Count))
system.cpu.icache.writebacks::writebacks          136                       # number of writebacks (Count)
system.cpu.icache.writebacks::total               136                       # number of writebacks (Count)
system.cpu.icache.demandMshrMisses::cpu.inst          646                       # number of demand (read+write) MSHR misses (Count)
system.cpu.icache.demandMshrMisses::total          646                       # number of demand (read+write) MSHR misses (Count)
system.cpu.icache.overallMshrMisses::cpu.inst          646                       # number of overall MSHR misses (Count)
system.cpu.icache.overallMshrMisses::total          646                       # number of overall MSHR misses (Count)
system.cpu.icache.demandMshrMissLatency::cpu.inst     47639000                       # number of demand (read+write) MSHR miss ticks (Tick)
system.cpu.icache.demandMshrMissLatency::total     47639000                       # number of demand (read+write) MSHR miss ticks (Tick)
system.cpu.icache.overallMshrMissLatency::cpu.inst     47639000                       # number of overall MSHR miss ticks (Tick)
system.cpu.icache.overallMshrMissLatency::total     47639000                       # number of overall MSHR miss ticks (Tick)
system.cpu.icache.demandMshrMissRate::cpu.inst     0.000020                       # mshr miss ratio for demand accesses (Ratio)
system.cpu.icache.demandMshrMissRate::total     0.000020                       # mshr miss ratio for demand accesses (Ratio)
system.cpu.icache.overallMshrMissRate::cpu.inst     0.000020                       # mshr miss ratio for overall accesses (Ratio)
system.cpu.icache.overallMshrMissRate::total     0.000020                       # mshr miss ratio for overall accesses (Ratio)
system.cpu.icache.demandAvgMshrMissLatency::cpu.inst 73744.582043                       # average overall mshr miss latency ((Cycle/Count))
system.cpu.icache.demandAvgMshrMissLatency::total 73744.582043                       # average overall mshr miss latency ((Cycle/Count))
system.cpu.icache.overallAvgMshrMissLatency::cpu.inst 73744.582043                       # average overall mshr miss latency ((Cycle/Count))
system.cpu.icache.overallAvgMshrMissLatency::total 73744.582043                       # average overall mshr miss latency ((Cycle/Count))
system.cpu.icache.replacements                    136                       # number of replacements (Count)
system.cpu.icache.ReadReq.hits::cpu.inst     32133994                       # number of ReadReq hits (Count)
system.cpu.icache.ReadReq.hits::total        32133994                       # number of ReadReq hits (Count)
system.cpu.icache.ReadReq.misses::cpu.inst          646                       # number of ReadReq misses (Count)
system.cpu.icache.ReadReq.misses::total           646                       # number of ReadReq misses (Count)
system.cpu.icache.ReadReq.missLatency::cpu.inst     48285000                       # number of ReadReq miss ticks (Tick)
system.cpu.icache.ReadReq.missLatency::total     48285000                       # number of ReadReq miss ticks (Tick)
system.cpu.icache.ReadReq.accesses::cpu.inst     32134640                       # number of ReadReq accesses(hits+misses) (Count)
system.cpu.icache.ReadReq.accesses::total     32134640                       # number of ReadReq accesses(hits+misses) (Count)
system.cpu.icache.ReadReq.missRate::cpu.inst     0.000020                       # miss rate for ReadReq accesses (Ratio)
system.cpu.icache.ReadReq.missRate::total     0.000020                       # miss rate for ReadReq accesses (Ratio)
system.cpu.icache.ReadReq.avgMissLatency::cpu.inst 74744.582043                       # average ReadReq miss latency ((Tick/Count))
system.cpu.icache.ReadReq.avgMissLatency::total 74744.582043                       # average ReadReq miss latency ((Tick/Count))
system.cpu.icache.ReadReq.mshrMisses::cpu.inst          646                       # number of ReadReq MSHR misses (Count)
system.cpu.icache.ReadReq.mshrMisses::total          646                       # number of ReadReq MSHR misses (Count)
system.cpu.icache.ReadReq.mshrMissLatency::cpu.inst     47639000                       # number of ReadReq MSHR miss ticks (Tick)
system.cpu.icache.ReadReq.mshrMissLatency::total     47639000                       # number of ReadReq MSHR miss ticks (Tick)
system.cpu.icache.ReadReq.mshrMissRate::cpu.inst     0.000020                       # mshr miss rate for ReadReq accesses (Ratio)
system.cpu.icache.ReadReq.mshrMissRate::total     0.000020                       # mshr miss rate for ReadReq accesses (Ratio)
system.cpu.icache.ReadReq.avgMshrMissLatency::cpu.inst 73744.582043                       # average ReadReq mshr miss latency ((Tick/Count))
system.cpu.icache.ReadReq.avgMshrMissLatency::total 73744.582043                       # average ReadReq mshr miss latency ((Tick/Count))
system.cpu.icache.power_state.pwrStateResidencyTicks::UNDEFINED 514052640000                       # Cumulative time (in ticks) in various power states (Tick)
system.cpu.icache.tags.tagsInUse           425.853517                       # Average ticks per tags in use ((Tick/Count))
system.cpu.icache.tags.totalRefs             32134640                       # Total number of references to valid blocks. (Count)
system.cpu.icache.tags.sampledRefs                646                       # Sample count of references to valid blocks. (Count)
system.cpu.icache.tags.avgRefs           49744.024768                       # Average number of references to valid blocks. ((Count/Count))
system.cpu.icache.tags.warmupTick               87500                       # The tick when the warmup percentage was hit. (Tick)
system.cpu.icache.tags.occupancies::cpu.inst   425.853517                       # Average occupied blocks per tick, per requestor ((Count/Tick))
system.cpu.icache.tags.avgOccs::cpu.inst     0.415873                       # Average percentage of cache occupancy ((Ratio/Tick))
system.cpu.icache.tags.avgOccs::total        0.415873                       # Average percentage of cache occupancy ((Ratio/Tick))
system.cpu.icache.tags.occupanciesTaskId::1024          510                       # Occupied blocks per task id (Count)
system.cpu.icache.tags.ageTaskId_1024::4          510                       # Occupied blocks per task id, per block age (Count)
system.cpu.icache.tags.ratioOccsTaskId::1024     0.498047                       # Ratio of occupied blocks and all blocks, per task id (Ratio)
system.cpu.icache.tags.tagAccesses           32135286                       # Number of tag accesses (Count)
system.cpu.icache.tags.dataAccesses          32135286                       # Number of data accesses (Count)
system.cpu.icache.tags.power_state.pwrStateResidencyTicks::UNDEFINED 514052640000                       # Cumulative time (in ticks) in various power states (Tick)
system.cpu.mmu.dtb.instHits                         0                       # ITB inst hits (Count)
system.cpu.mmu.dtb.instMisses                       0                       # ITB inst misses (Count)
system.cpu.mmu.dtb.readHits                         0                       # DTB read hits (Count)
system.cpu.mmu.dtb.readMisses                       0                       # DTB read misses (Count)
system.cpu.mmu.dtb.writeHits                        0                       # DTB write hits (Count)
system.cpu.mmu.dtb.writeMisses                      0                       # DTB write misses (Count)
system.cpu.mmu.dtb.inserts                          0                       # Number of times an entry is inserted into the TLB (Count)
system.cpu.mmu.dtb.flushTlb                         0                       # Number of times complete TLB was flushed (Count)
system.cpu.mmu.dtb.flushTlbMva                      0                       # Number of times TLB was flushed by MVA (Count)
system.cpu.mmu.dtb.flushTlbMvaAsid                  0                       # Number of times TLB was flushed by MVA & ASID (Count)
system.cpu.mmu.dtb.flushTlbAsid                     0                       # Number of times TLB was flushed by ASID (Count)
system.cpu.mmu.dtb.flushedEntries                   0                       # Number of entries that have been flushed from TLB (Count)
system.cpu.mmu.dtb.alignFaults                      0                       # Number of TLB faults due to alignment restrictions (Count)
system.cpu.mmu.dtb.prefetchFaults                   0                       # Number of TLB faults due to prefetch (Count)
system.cpu.mmu.dtb.domainFaults                     0                       # Number of TLB faults due to domain restrictions (Count)
system.cpu.mmu.dtb.permsFaults                      0                       # Number of TLB faults due to permissions restrictions (Count)
system.cpu.mmu.dtb.readAccesses                     0                       # DTB read accesses (Count)
system.cpu.mmu.dtb.writeAccesses                    0                       # DTB write accesses (Count)
system.cpu.mmu.dtb.instAccesses                     0                       # ITB inst accesses (Count)
system.cpu.mmu.dtb.hits                             0                       # Total TLB (inst and data) hits (Count)
system.cpu.mmu.dtb.misses                           0                       # Total TLB (inst and data) misses (Count)
system.cpu.mmu.dtb.accesses                         0                       # Total TLB (inst and data) accesses (Count)
system.cpu.mmu.dtb_walker.walks                     0                       # Table walker walks requested (Count)
system.cpu.mmu.dtb_walker.requestOrigin_Requested::Data            0                       # Table walker requests started/completed, data/inst (Count)
system.cpu.mmu.dtb_walker.requestOrigin_Requested::Inst            0                       # Table walker requests started/completed, data/inst (Count)
system.cpu.mmu.dtb_walker.requestOrigin_Requested::total            0                       # Table walker requests started/completed, data/inst (Count)
system.cpu.mmu.dtb_walker.requestOrigin_Completed::Data            0                       # Table walker requests started/completed, data/inst (Count)
system.cpu.mmu.dtb_walker.requestOrigin_Completed::Inst            0                       # Table walker requests started/completed, data/inst (Count)
system.cpu.mmu.dtb_walker.requestOrigin_Completed::total            0                       # Table walker requests started/completed, data/inst (Count)
system.cpu.mmu.dtb_walker.requestOrigin::total            0                       # Table walker requests started/completed, data/inst (Count)
system.cpu.mmu.dtb_walker.power_state.pwrStateResidencyTicks::UNDEFINED 514052640000                       # Cumulative time (in ticks) in various power states (Tick)
system.cpu.mmu.itb.instHits                         0                       # ITB inst hits (Count)
system.cpu.mmu.itb.instMisses                       0                       # ITB inst misses (Count)
system.cpu.mmu.itb.readHits                         0                       # DTB read hits (Count)
system.cpu.mmu.itb.readMisses                       0                       # DTB read misses (Count)
system.cpu.mmu.itb.writeHits                        0                       # DTB write hits (Count)
system.cpu.mmu.itb.writeMisses                      0                       # DTB write misses (Count)
system.cpu.mmu.itb.inserts                          0                       # Number of times an entry is inserted into the TLB (Count)
system.cpu.mmu.itb.flushTlb                         0                       # Number of times complete TLB was flushed (Count)
system.cpu.mmu.itb.flushTlbMva                      0                       # Number of times TLB was flushed by MVA (Count)
system.cpu.mmu.itb.flushTlbMvaAsid                  0                       # Number of times TLB was flushed by MVA & ASID (Count)
system.cpu.mmu.itb.flushTlbAsid                     0                       # Number of times TLB was flushed by ASID (Count)
system.cpu.mmu.itb.flushedEntries                   0                       # Number of entries that have been flushed from TLB (Count)
system.cpu.mmu.itb.alignFaults                      0                       # Number of TLB faults due to alignment restrictions (Count)
system.cpu.mmu.itb.prefetchFaults                   0                       # Number of TLB faults due to prefetch (Count)
system.cpu.mmu.itb.domainFaults                     0                       # Number of TLB faults due to domain restrictions (Count)
system.cpu.mmu.itb.permsFaults                      0                       # Number of TLB faults due to permissions restrictions (Count)
system.cpu.mmu.itb.readAccesses                     0                       # DTB read accesses (Count)
system.cpu.mmu.itb.writeAccesses                    0                       # DTB write accesses (Count)
system.cpu.mmu.itb.instAccesses                     0                       # ITB inst accesses (Count)
system.cpu.mmu.itb.hits                             0                       # Total TLB (inst and data) hits (Count)
system.cpu.mmu.itb.misses                           0                       # Total TLB (inst and data) misses (Count)
system.cpu.mmu.itb.accesses                         0                       # Total TLB (inst and data) accesses (Count)
system.cpu.mmu.itb_walker.walks                     0                       # Table walker walks requested (Count)
system.cpu.mmu.itb_walker.requestOrigin_Requested::Data            0                       # Table walker requests started/completed, data/inst (Count)
system.cpu.mmu.itb_walker.requestOrigin_Requested::Inst            0                       # Table walker requests started/completed, data/inst (Count)
system.cpu.mmu.itb_walker.requestOrigin_Requested::total            0                       # Table walker requests started/completed, data/inst (Count)
system.cpu.mmu.itb_walker.requestOrigin_Completed::Data            0                       # Table walker requests started/completed, data/inst (Count)
system.cpu.mmu.itb_walker.requestOrigin_Completed::Inst            0                       # Table walker requests started/completed, data/inst (Count)
system.cpu.mmu.itb_walker.requestOrigin_Completed::total            0                       # Table walker requests started/completed, data/inst (Count)
system.cpu.mmu.itb_walker.requestOrigin::total            0                       # Table walker requests started/completed, data/inst (Count)
system.cpu.mmu.itb_walker.power_state.pwrStateResidencyTicks::UNDEFINED 514052640000                       # Cumulative time (in ticks) in various power states (Tick)
system.cpu.mmu.stage2_dtb.instHits                  0                       # ITB inst hits (Count)
system.cpu.mmu.stage2_dtb.instMisses                0                       # ITB inst misses (Count)
system.cpu.mmu.stage2_dtb.readHits                  0                       # DTB read hits (Count)
system.cpu.mmu.stage2_dtb.readMisses                0                       # DTB read misses (Count)
system.cpu.mmu.stage2_dtb.writeHits                 0                       # DTB write hits (Count)
system.cpu.mmu.stage2_dtb.writeMisses               0                       # DTB write misses (Count)
system.cpu.mmu.stage2_dtb.inserts                   0                       # Number of times an entry is inserted into the TLB (Count)
system.cpu.mmu.stage2_dtb.flushTlb                  0                       # Number of times complete TLB was flushed (Count)
system.cpu.mmu.stage2_dtb.flushTlbMva               0                       # Number of times TLB was flushed by MVA (Count)
system.cpu.mmu.stage2_dtb.flushTlbMvaAsid            0                       # Number of times TLB was flushed by MVA & ASID (Count)
system.cpu.mmu.stage2_dtb.flushTlbAsid              0                       # Number of times TLB was flushed by ASID (Count)
system.cpu.mmu.stage2_dtb.flushedEntries            0                       # Number of entries that have been flushed from TLB (Count)
system.cpu.mmu.stage2_dtb.alignFaults               0                       # Number of TLB faults due to alignment restrictions (Count)
system.cpu.mmu.stage2_dtb.prefetchFaults            0                       # Number of TLB faults due to prefetch (Count)
system.cpu.mmu.stage2_dtb.domainFaults              0                       # Number of TLB faults due to domain restrictions (Count)
system.cpu.mmu.stage2_dtb.permsFaults               0                       # Number of TLB faults due to permissions restrictions (Count)
system.cpu.mmu.stage2_dtb.readAccesses              0                       # DTB read accesses (Count)
system.cpu.mmu.stage2_dtb.writeAccesses             0                       # DTB write accesses (Count)
system.cpu.mmu.stage2_dtb.instAccesses              0                       # ITB inst accesses (Count)
system.cpu.mmu.stage2_dtb.hits                      0                       # Total TLB (inst and data) hits (Count)
system.cpu.mmu.stage2_dtb.misses                    0                       # Total TLB (inst and data) misses (Count)
system.cpu.mmu.stage2_dtb.accesses                  0                       # Total TLB (inst and data) accesses (Count)
system.cpu.mmu.stage2_dtb_walker.walks              0                       # Table walker walks requested (Count)
system.cpu.mmu.stage2_dtb_walker.requestOrigin_Requested::Data            0                       # Table walker requests started/completed, data/inst (Count)
system.cpu.mmu.stage2_dtb_walker.requestOrigin_Requested::Inst            0                       # Table walker requests started/completed, data/inst (Count)
system.cpu.mmu.stage2_dtb_walker.requestOrigin_Requested::total            0                       # Table walker requests started/completed, data/inst (Count)
system.cpu.mmu.stage2_dtb_walker.requestOrigin_Completed::Data            0                       # Table walker requests started/completed, data/inst (Count)
system.cpu.mmu.stage2_dtb_walker.requestOrigin_Completed::Inst            0                       # Table walker requests started/completed, data/inst (Count)
system.cpu.mmu.stage2_dtb_walker.requestOrigin_Completed::total            0                       # Table walker requests started/completed, data/inst (Count)
system.cpu.mmu.stage2_dtb_walker.requestOrigin::total            0                       # Table walker requests started/completed, data/inst (Count)
system.cpu.mmu.stage2_dtb_walker.power_state.pwrStateResidencyTicks::UNDEFINED 514052640000                       # Cumulative time (in ticks) in various power states (Tick)
system.cpu.mmu.stage2_itb.instHits                  0                       # ITB inst hits (Count)
system.cpu.mmu.stage2_itb.instMisses                0                       # ITB inst misses (Count)
system.cpu.mmu.stage2_itb.readHits                  0                       # DTB read hits (Count)
system.cpu.mmu.stage2_itb.readMisses                0                       # DTB read misses (Count)
system.cpu.mmu.stage2_itb.writeHits                 0                       # DTB write hits (Count)
system.cpu.mmu.stage2_itb.writeMisses               0                       # DTB write misses (Count)
system.cpu.mmu.stage2_itb.inserts                   0                       # Number of times an entry is inserted into the TLB (Count)
system.cpu.mmu.stage2_itb.flushTlb                  0                       # Number of times complete TLB was flushed (Count)
system.cpu.mmu.stage2_itb.flushTlbMva               0                       # Number of times TLB was flushed by MVA (Count)
system.cpu.mmu.stage2_itb.flushTlbMvaAsid            0                       # Number of times TLB was flushed by MVA & ASID (Count)
system.cpu.mmu.stage2_itb.flushTlbAsid              0                       # Number of times TLB was flushed by ASID (Count)
system.cpu.mmu.stage2_itb.flushedEntries            0                       # Number of entries that have been flushed from TLB (Count)
system.cpu.mmu.stage2_itb.alignFaults               0                       # Number of TLB faults due to alignment restrictions (Count)
system.cpu.mmu.stage2_itb.prefetchFaults            0                       # Number of TLB faults due to prefetch (Count)
system.cpu.mmu.stage2_itb.domainFaults              0                       # Number of TLB faults due to domain restrictions (Count)
system.cpu.mmu.stage2_itb.permsFaults               0                       # Number of TLB faults due to permissions restrictions (Count)
system.cpu.mmu.stage2_itb.readAccesses              0                       # DTB read accesses (Count)
system.cpu.mmu.stage2_itb.writeAccesses             0                       # DTB write accesses (Count)
system.cpu.mmu.stage2_itb.instAccesses              0                       # ITB inst accesses (Count)
system.cpu.mmu.stage2_itb.hits                      0                       # Total TLB (inst and data) hits (Count)
system.cpu.mmu.stage2_itb.misses                    0                       # Total TLB (inst and data) misses (Count)
system.cpu.mmu.stage2_itb.accesses                  0                       # Total TLB (inst and data) accesses (Count)
system.cpu.mmu.stage2_itb_walker.walks              0                       # Table walker walks requested (Count)
system.cpu.mmu.stage2_itb_walker.requestOrigin_Requested::Data            0                       # Table walker requests started/completed, data/inst (Count)
system.cpu.mmu.stage2_itb_walker.requestOrigin_Requested::Inst            0                       # Table walker requests started/completed, data/inst (Count)
system.cpu.mmu.stage2_itb_walker.requestOrigin_Requested::total            0                       # Table walker requests started/completed, data/inst (Count)
system.cpu.mmu.stage2_itb_walker.requestOrigin_Completed::Data            0                       # Table walker requests started/completed, data/inst (Count)
system.cpu.mmu.stage2_itb_walker.requestOrigin_Completed::Inst            0                       # Table walker requests started/completed, data/inst (Count)
system.cpu.mmu.stage2_itb_walker.requestOrigin_Completed::total            0                       # Table walker requests started/completed, data/inst (Count)
system.cpu.mmu.stage2_itb_walker.requestOrigin::total            0                       # Table walker requests started/completed, data/inst (Count)
system.cpu.mmu.stage2_itb_walker.power_state.pwrStateResidencyTicks::UNDEFINED 514052640000                       # Cumulative time (in ticks) in various power states (Tick)
system.cpu.power_state.pwrStateResidencyTicks::ON 514052640000                       # Cumulative time (in ticks) in various power states (Tick)
system.cpu.thread_0.numInsts                100000000                       # Number of Instructions committed (Count)
system.cpu.thread_0.numOps                  184220346                       # Number of Ops committed (Count)
system.cpu.thread_0.numMemRefs                      0                       # Number of Memory References (Count)
system.cpu.workload.numSyscalls                    19                       # Number of system calls (Count)
system.cpu_clk_domain.clock                       500                       # Clock period in ticks (Tick)
system.cpu_voltage_domain.voltage                   1                       # Voltage in Volts (Volt)
system.l2.demandHits::cpu.inst                     66                       # number of demand (read+write) hits (Count)
system.l2.demandHits::cpu.data                   3482                       # number of demand (read+write) hits (Count)
system.l2.demandHits::total                      3548                       # number of demand (read+write) hits (Count)
system.l2.overallHits::cpu.inst                    66                       # number of overall hits (Count)
system.l2.overallHits::cpu.data                  3482                       # number of overall hits (Count)
system.l2.overallHits::total                     3548                       # number of overall hits (Count)
system.l2.demandMisses::cpu.inst                  580                       # number of demand (read+write) misses (Count)
system.l2.demandMisses::cpu.data              5263265                       # number of demand (read+write) misses (Count)
system.l2.demandMisses::total                 5263845                       # number of demand (read+write) misses (Count)
system.l2.overallMisses::cpu.inst                 580                       # number of overall misses (Count)
system.l2.overallMisses::cpu.data             5263265                       # number of overall misses (Count)
system.l2.overallMisses::total                5263845                       # number of overall misses (Count)
system.l2.demandMissLatency::cpu.inst        45952500                       # number of demand (read+write) miss ticks (Tick)
system.l2.demandMissLatency::cpu.data    424229474000                       # number of demand (read+write) miss ticks (Tick)
system.l2.demandMissLatency::total       424275426500                       # number of demand (read+write) miss ticks (Tick)
system.l2.overallMissLatency::cpu.inst       45952500                       # number of overall miss ticks (Tick)
system.l2.overallMissLatency::cpu.data   424229474000                       # number of overall miss ticks (Tick)
system.l2.overallMissLatency::total      424275426500                       # number of overall miss ticks (Tick)
system.l2.demandAccesses::cpu.inst                646                       # number of demand (read+write) accesses (Count)
system.l2.demandAccesses::cpu.data            5266747                       # number of demand (read+write) accesses (Count)
system.l2.demandAccesses::total               5267393                       # number of demand (read+write) accesses (Count)
system.l2.overallAccesses::cpu.inst               646                       # number of overall (read+write) accesses (Count)
system.l2.overallAccesses::cpu.data           5266747                       # number of overall (read+write) accesses (Count)
system.l2.overallAccesses::total              5267393                       # number of overall (read+write) accesses (Count)
system.l2.demandMissRate::cpu.inst           0.897833                       # miss rate for demand accesses (Ratio)
system.l2.demandMissRate::cpu.data           0.999339                       # miss rate for demand accesses (Ratio)
system.l2.demandMissRate::total              0.999326                       # miss rate for demand accesses (Ratio)
system.l2.overallMissRate::cpu.inst          0.897833                       # miss rate for overall accesses (Ratio)
system.l2.overallMissRate::cpu.data          0.999339                       # miss rate for overall accesses (Ratio)
system.l2.overallMissRate::total             0.999326                       # miss rate for overall accesses (Ratio)
system.l2.demandAvgMissLatency::cpu.inst 79228.448276                       # average overall miss latency ((Cycle/Count))
system.l2.demandAvgMissLatency::cpu.data 80601.959810                       # average overall miss latency ((Cycle/Count))
system.l2.demandAvgMissLatency::total    80601.808469                       # average overall miss latency ((Cycle/Count))
system.l2.overallAvgMissLatency::cpu.inst 79228.448276                       # average overall miss latency ((Cycle/Count))
system.l2.overallAvgMissLatency::cpu.data 80601.959810                       # average overall miss latency ((Cycle/Count))
system.l2.overallAvgMissLatency::total   80601.808469                       # average overall miss latency ((Cycle/Count))
system.l2.blockedCycles::no_mshrs                   0                       # number of cycles access was blocked (Cycle)
system.l2.blockedCycles::no_targets                 0                       # number of cycles access was blocked (Cycle)
system.l2.blockedCauses::no_mshrs                   0                       # number of times access was blocked (Count)
system.l2.blockedCauses::no_targets                 0                       # number of times access was blocked (Count)
system.l2.avgBlocked::no_mshrs                    nan                       # average number of cycles each access was blocked ((Cycle/Count))
system.l2.avgBlocked::no_targets                  nan                       # average number of cycles each access was blocked ((Cycle/Count))
system.l2.writebacks::writebacks              5254829                       # number of writebacks (Count)
system.l2.writebacks::total                   5254829                       # number of writebacks (Count)
system.l2.demandMshrHits::cpu.inst                  1                       # number of demand (read+write) MSHR hits (Count)
system.l2.demandMshrHits::cpu.data                  4                       # number of demand (read+write) MSHR hits (Count)
system.l2.demandMshrHits::total                     5                       # number of demand (read+write) MSHR hits (Count)
system.l2.overallMshrHits::cpu.inst                 1                       # number of overall MSHR hits (Count)
system.l2.overallMshrHits::cpu.data                 4                       # number of overall MSHR hits (Count)
system.l2.overallMshrHits::total                    5                       # number of overall MSHR hits (Count)
system.l2.demandMshrMisses::cpu.inst              579                       # number of demand (read+write) MSHR misses (Count)
system.l2.demandMshrMisses::cpu.data          5263261                       # number of demand (read+write) MSHR misses (Count)
system.l2.demandMshrMisses::total             5263840                       # number of demand (read+write) MSHR misses (Count)
system.l2.overallMshrMisses::cpu.inst             579                       # number of overall MSHR misses (Count)
system.l2.overallMshrMisses::cpu.data         5263261                       # number of overall MSHR misses (Count)
system.l2.overallMshrMisses::total            5263840                       # number of overall MSHR misses (Count)
system.l2.demandMshrMissLatency::cpu.inst     40065000                       # number of demand (read+write) MSHR miss ticks (Tick)
system.l2.demandMshrMissLatency::cpu.data 371596592000                       # number of demand (read+write) MSHR miss ticks (Tick)
system.l2.demandMshrMissLatency::total   371636657000                       # number of demand (read+write) MSHR miss ticks (Tick)
system.l2.overallMshrMissLatency::cpu.inst     40065000                       # number of overall MSHR miss ticks (Tick)
system.l2.overallMshrMissLatency::cpu.data 371596592000                       # number of overall MSHR miss ticks (Tick)
system.l2.overallMshrMissLatency::total  371636657000                       # number of overall MSHR miss ticks (Tick)
system.l2.demandMshrMissRate::cpu.inst       0.896285                       # mshr miss ratio for demand accesses (Ratio)
system.l2.demandMshrMissRate::cpu.data       0.999338                       # mshr miss ratio for demand accesses (Ratio)
system.l2.demandMshrMissRate::total          0.999325                       # mshr miss ratio for demand accesses (Ratio)
system.l2.overallMshrMissRate::cpu.inst      0.896285                       # mshr miss ratio for overall accesses (Ratio)
system.l2.overallMshrMissRate::cpu.data      0.999338                       # mshr miss ratio for overall accesses (Ratio)
system.l2.overallMshrMissRate::total         0.999325                       # mshr miss ratio for overall accesses (Ratio)
system.l2.demandAvgMshrMissLatency::cpu.inst 69196.891192                       # average overall mshr miss latency ((Cycle/Count))
system.l2.demandAvgMshrMissLatency::cpu.data 70601.969387                       # average overall mshr miss latency ((Cycle/Count))
system.l2.demandAvgMshrMissLatency::total 70601.814835                       # average overall mshr miss latency ((Cycle/Count))
system.l2.overallAvgMshrMissLatency::cpu.inst 69196.891192                       # average overall mshr miss latency ((Cycle/Count))
system.l2.overallAvgMshrMissLatency::cpu.data 70601.969387                       # average overall mshr miss latency ((Cycle/Count))
system.l2.overallAvgMshrMissLatency::total 70601.814835                       # average overall mshr miss latency ((Cycle/Count))
system.l2.replacements                        5255688                       # number of replacements (Count)
system.l2.ReadCleanReq.hits::cpu.inst              66                       # number of ReadCleanReq hits (Count)
system.l2.ReadCleanReq.hits::total                 66                       # number of ReadCleanReq hits (Count)
system.l2.ReadCleanReq.misses::cpu.inst           580                       # number of ReadCleanReq misses (Count)
system.l2.ReadCleanReq.misses::total              580                       # number of ReadCleanReq misses (Count)
system.l2.ReadCleanReq.missLatency::cpu.inst     45952500                       # number of ReadCleanReq miss ticks (Tick)
system.l2.ReadCleanReq.missLatency::total     45952500                       # number of ReadCleanReq miss ticks (Tick)
system.l2.ReadCleanReq.accesses::cpu.inst          646                       # number of ReadCleanReq accesses(hits+misses) (Count)
system.l2.ReadCleanReq.accesses::total            646                       # number of ReadCleanReq accesses(hits+misses) (Count)
system.l2.ReadCleanReq.missRate::cpu.inst     0.897833                       # miss rate for ReadCleanReq accesses (Ratio)
system.l2.ReadCleanReq.missRate::total       0.897833                       # miss rate for ReadCleanReq accesses (Ratio)
system.l2.ReadCleanReq.avgMissLatency::cpu.inst 79228.448276                       # average ReadCleanReq miss latency ((Tick/Count))
system.l2.ReadCleanReq.avgMissLatency::total 79228.448276                       # average ReadCleanReq miss latency ((Tick/Count))
system.l2.ReadCleanReq.mshrHits::cpu.inst            1                       # number of ReadCleanReq MSHR hits (Count)
system.l2.ReadCleanReq.mshrHits::total              1                       # number of ReadCleanReq MSHR hits (Count)
system.l2.ReadCleanReq.mshrMisses::cpu.inst          579                       # number of ReadCleanReq MSHR misses (Count)
system.l2.ReadCleanReq.mshrMisses::total          579                       # number of ReadCleanReq MSHR misses (Count)
system.l2.ReadCleanReq.mshrMissLatency::cpu.inst     40065000                       # number of ReadCleanReq MSHR miss ticks (Tick)
system.l2.ReadCleanReq.mshrMissLatency::total     40065000                       # number of ReadCleanReq MSHR miss ticks (Tick)
system.l2.ReadCleanReq.mshrMissRate::cpu.inst     0.896285                       # mshr miss rate for ReadCleanReq accesses (Ratio)
system.l2.ReadCleanReq.mshrMissRate::total     0.896285                       # mshr miss rate for ReadCleanReq accesses (Ratio)
system.l2.ReadCleanReq.avgMshrMissLatency::cpu.inst 69196.891192                       # average ReadCleanReq mshr miss latency ((Tick/Count))
system.l2.ReadCleanReq.avgMshrMissLatency::total 69196.891192                       # average ReadCleanReq mshr miss latency ((Tick/Count))
system.l2.ReadExReq.hits::cpu.data               1623                       # number of ReadExReq hits (Count)
system.l2.ReadExReq.hits::total                  1623                       # number of ReadExReq hits (Count)
system.l2.ReadExReq.misses::cpu.data          5262990                       # number of ReadExReq misses (Count)
system.l2.ReadExReq.misses::total             5262990                       # number of ReadExReq misses (Count)
system.l2.ReadExReq.missLatency::cpu.data 424206087000                       # number of ReadExReq miss ticks (Tick)
system.l2.ReadExReq.missLatency::total   424206087000                       # number of ReadExReq miss ticks (Tick)
system.l2.ReadExReq.accesses::cpu.data        5264613                       # number of ReadExReq accesses(hits+misses) (Count)
system.l2.ReadExReq.accesses::total           5264613                       # number of ReadExReq accesses(hits+misses) (Count)
system.l2.ReadExReq.missRate::cpu.data       0.999692                       # miss rate for ReadExReq accesses (Ratio)
system.l2.ReadExReq.missRate::total          0.999692                       # miss rate for ReadExReq accesses (Ratio)
system.l2.ReadExReq.avgMissLatency::cpu.data 80601.727725                       # average ReadExReq miss latency ((Tick/Count))
system.l2.ReadExReq.avgMissLatency::total 80601.727725                       # average ReadExReq miss latency ((Tick/Count))
system.l2.ReadExReq.mshrMisses::cpu.data      5262990                       # number of ReadExReq MSHR misses (Count)
system.l2.ReadExReq.mshrMisses::total         5262990                       # number of ReadExReq MSHR misses (Count)
system.l2.ReadExReq.mshrMissLatency::cpu.data 371576187000                       # number of ReadExReq MSHR miss ticks (Tick)
system.l2.ReadExReq.mshrMissLatency::total 371576187000                       # number of ReadExReq MSHR miss ticks (Tick)
system.l2.ReadExReq.mshrMissRate::cpu.data     0.999692                       # mshr miss rate for ReadExReq accesses (Ratio)
system.l2.ReadExReq.mshrMissRate::total      0.999692                       # mshr miss rate for ReadExReq accesses (Ratio)
system.l2.ReadExReq.avgMshrMissLatency::cpu.data 70601.727725                       # average ReadExReq mshr miss latency ((Tick/Count))
system.l2.ReadExReq.avgMshrMissLatency::total 70601.727725                       # average ReadExReq mshr miss latency ((Tick/Count))
system.l2.ReadSharedReq.hits::cpu.data           1859                       # number of ReadSharedReq hits (Count)
system.l2.ReadSharedReq.hits::total              1859                       # number of ReadSharedReq hits (Count)
system.l2.ReadSharedReq.misses::cpu.data          275                       # number of ReadSharedReq misses (Count)
system.l2.ReadSharedReq.misses::total             275                       # number of ReadSharedReq misses (Count)
system.l2.ReadSharedReq.missLatency::cpu.data     23387000                       # number of ReadSharedReq miss ticks (Tick)
system.l2.ReadSharedReq.missLatency::total     23387000                       # number of ReadSharedReq miss ticks (Tick)
system.l2.ReadSharedReq.accesses::cpu.data         2134                       # number of ReadSharedReq accesses(hits+misses) (Count)
system.l2.ReadSharedReq.accesses::total          2134                       # number of ReadSharedReq accesses(hits+misses) (Count)
system.l2.ReadSharedReq.missRate::cpu.data     0.128866                       # miss rate for ReadSharedReq accesses (Ratio)
system.l2.ReadSharedReq.missRate::total      0.128866                       # miss rate for ReadSharedReq accesses (Ratio)
system.l2.ReadSharedReq.avgMissLatency::cpu.data 85043.636364                       # average ReadSharedReq miss latency ((Tick/Count))
system.l2.ReadSharedReq.avgMissLatency::total 85043.636364                       # average ReadSharedReq miss latency ((Tick/Count))
system.l2.ReadSharedReq.mshrHits::cpu.data            4                       # number of ReadSharedReq MSHR hits (Count)
system.l2.ReadSharedReq.mshrHits::total             4                       # number of ReadSharedReq MSHR hits (Count)
system.l2.ReadSharedReq.mshrMisses::cpu.data          271                       # number of ReadSharedReq MSHR misses (Count)
system.l2.ReadSharedReq.mshrMisses::total          271                       # number of ReadSharedReq MSHR misses (Count)
system.l2.ReadSharedReq.mshrMissLatency::cpu.data     20405000                       # number of ReadSharedReq MSHR miss ticks (Tick)
system.l2.ReadSharedReq.mshrMissLatency::total     20405000                       # number of ReadSharedReq MSHR miss ticks (Tick)
system.l2.ReadSharedReq.mshrMissRate::cpu.data     0.126992                       # mshr miss rate for ReadSharedReq accesses (Ratio)
system.l2.ReadSharedReq.mshrMissRate::total     0.126992                       # mshr miss rate for ReadSharedReq accesses (Ratio)
system.l2.ReadSharedReq.avgMshrMissLatency::cpu.data 75295.202952                       # average ReadSharedReq mshr miss latency ((Tick/Count))
system.l2.ReadSharedReq.avgMshrMissLatency::total 75295.202952                       # average ReadSharedReq mshr miss latency ((Tick/Count))
system.l2.WritebackClean.hits::writebacks          130                       # number of WritebackClean hits (Count)
system.l2.WritebackClean.hits::total              130                       # number of WritebackClean hits (Count)
system.l2.WritebackClean.accesses::writebacks          130                       # number of WritebackClean accesses(hits+misses) (Count)
system.l2.WritebackClean.accesses::total          130                       # number of WritebackClean accesses(hits+misses) (Count)
system.l2.WritebackDirty.hits::writebacks      5263919                       # number of WritebackDirty hits (Count)
system.l2.WritebackDirty.hits::total          5263919                       # number of WritebackDirty hits (Count)
system.l2.WritebackDirty.accesses::writebacks      5263919                       # number of WritebackDirty accesses(hits+misses) (Count)
system.l2.WritebackDirty.accesses::total      5263919                       # number of WritebackDirty accesses(hits+misses) (Count)
system.l2.power_state.pwrStateResidencyTicks::UNDEFINED 514052640000                       # Cumulative time (in ticks) in various power states (Tick)
system.l2.tags.tagsInUse                  8152.803669                       # Average ticks per tags in use ((Tick/Count))
system.l2.tags.totalRefs                     10532870                       # Total number of references to valid blocks. (Count)
system.l2.tags.sampledRefs                    5263880                       # Sample count of references to valid blocks. (Count)
system.l2.tags.avgRefs                       2.000971                       # Average number of references to valid blocks. ((Count/Count))
system.l2.tags.warmupTick                       77000                       # The tick when the warmup percentage was hit. (Tick)
system.l2.tags.occupancies::writebacks       0.042063                       # Average occupied blocks per tick, per requestor ((Count/Tick))
system.l2.tags.occupancies::cpu.inst         2.470222                       # Average occupied blocks per tick, per requestor ((Count/Tick))
system.l2.tags.occupancies::cpu.data      8150.291385                       # Average occupied blocks per tick, per requestor ((Count/Tick))
system.l2.tags.avgOccs::writebacks           0.000005                       # Average percentage of cache occupancy ((Ratio/Tick))
system.l2.tags.avgOccs::cpu.inst             0.000302                       # Average percentage of cache occupancy ((Ratio/Tick))
system.l2.tags.avgOccs::cpu.data             0.994909                       # Average percentage of cache occupancy ((Ratio/Tick))
system.l2.tags.avgOccs::total                0.995215                       # Average percentage of cache occupancy ((Ratio/Tick))
system.l2.tags.occupanciesTaskId::1024           8192                       # Occupied blocks per task id (Count)
system.l2.tags.ageTaskId_1024::0                  104                       # Occupied blocks per task id, per block age (Count)
system.l2.tags.ageTaskId_1024::1                  923                       # Occupied blocks per task id, per block age (Count)
system.l2.tags.ageTaskId_1024::2                 7165                       # Occupied blocks per task id, per block age (Count)
system.l2.tags.ratioOccsTaskId::1024                1                       # Ratio of occupied blocks and all blocks, per task id (Ratio)
system.l2.tags.tagAccesses                   26329630                       # Number of tag accesses (Count)
system.l2.tags.dataAccesses                  26329630                       # Number of data accesses (Count)
system.l2.tags.power_state.pwrStateResidencyTicks::UNDEFINED 514052640000                       # Cumulative time (in ticks) in various power states (Tick)
system.mem_ctrls.avgPriority_writebacks::samples   5254829.00                       # Average QoS priority value for accepted requests (Count)
system.mem_ctrls.avgPriority_cpu.inst::samples       579.00                       # Average QoS priority value for accepted requests (Count)
system.mem_ctrls.avgPriority_cpu.data::samples   5263261.00                       # Average QoS priority value for accepted requests (Count)
system.mem_ctrls.priorityMinLatency      0.000000018750                       # per QoS priority minimum request to response latency (Second)
system.mem_ctrls.priorityMaxLatency      0.000348570250                       # per QoS priority maximum request to response latency (Second)
system.mem_ctrls.numReadWriteTurnArounds       328369                       # Number of turnarounds from READ to WRITE (Count)
[...]
system.mem_ctrls.dram.perBankWrBursts::8       328404                       # Per bank write bursts (Count)
system.mem_ctrls.dram.perBankWrBursts::9       328320                       # Per bank write bursts (Count)
system.mem_ctrls.dram.perBankWrBursts::10       328320                       # Per bank write bursts (Count)
system.mem_ctrls.dram.perBankWrBursts::11       328320                       # Per bank write bursts (Count)
system.mem_ctrls.dram.perBankWrBursts::12       328383                       # Per bank write bursts (Count)
system.mem_ctrls.dram.perBankWrBursts::13       328457                       # Per bank write bursts (Count)
system.mem_ctrls.dram.perBankWrBursts::14       328438                       # Per bank write bursts (Count)
system.mem_ctrls.dram.perBankWrBursts::15       328444                       # Per bank write bursts (Count)
system.mem_ctrls.dram.totQLat             58365105500                       # Total ticks spent queuing (Tick)
system.mem_ctrls.dram.totBusLat           26319200000                       # Total ticks spent in databus transfers (Tick)
system.mem_ctrls.dram.totMemAccLat       157062105500                       # Total ticks spent from burst creation until serviced by the DRAM (Tick)
system.mem_ctrls.dram.avgQLat                11087.93                       # Average queueing delay per DRAM burst ((Tick/Count))
system.mem_ctrls.dram.avgBusLat               5000.00                       # Average bus latency per DRAM burst ((Tick/Count))
system.mem_ctrls.dram.avgMemAccLat           29837.93                       # Average memory access latency per DRAM burst ((Tick/Count))
system.mem_ctrls.dram.readRowHits             4834880                       # Number of row buffer hits during reads (Count)
system.mem_ctrls.dram.writeRowHits            4880927                       # Number of row buffer hits during writes (Count)
system.mem_ctrls.dram.readRowHitRate            91.85                       # Row buffer hit rate for reads (Ratio)
system.mem_ctrls.dram.writeRowHitRate           92.89                       # Row buffer hit rate for writes (Ratio)
system.mem_ctrls.dram.bytesPerActivate::samples       802832                       # Bytes accessed per row activation (Byte)
system.mem_ctrls.dram.bytesPerActivate::mean   838.521873                       # Bytes accessed per row activation (Byte)
system.mem_ctrls.dram.bytesPerActivate::gmean   724.814402                       # Bytes accessed per row activation (Byte)
system.mem_ctrls.dram.bytesPerActivate::stdev   304.576498                       # Bytes accessed per row activation (Byte)
system.mem_ctrls.dram.bytesPerActivate::0-127        26546      3.31%      3.31% # Bytes accessed per row activation (Byte)
system.mem_ctrls.dram.bytesPerActivate::128-255        38272      4.77%      8.07% # Bytes accessed per row activation (Byte)
system.mem_ctrls.dram.bytesPerActivate::256-383        34469      4.29%     12.37% # Bytes accessed per row activation (Byte)
system.mem_ctrls.dram.bytesPerActivate::384-511        40021      4.98%     17.35% # Bytes accessed per row activation (Byte)
system.mem_ctrls.dram.bytesPerActivate::512-639        33225      4.14%     21.49% # Bytes accessed per row activation (Byte)
system.mem_ctrls.dram.bytesPerActivate::640-767        37859      4.72%     26.21% # Bytes accessed per row activation (Byte)
system.mem_ctrls.dram.bytesPerActivate::768-895        28046      3.49%     29.70% # Bytes accessed per row activation (Byte)
system.mem_ctrls.dram.bytesPerActivate::896-1023        41037      5.11%     34.81% # Bytes accessed per row activation (Byte)
system.mem_ctrls.dram.bytesPerActivate::1024-1151       523357     65.19%    100.00% # Bytes accessed per row activation (Byte)
system.mem_ctrls.dram.bytesPerActivate::total       802832                       # Bytes accessed per row activation (Byte)
system.mem_ctrls.dram.bytesRead             336885760                       # Total number of bytes read from DRAM (Byte)
system.mem_ctrls.dram.bytesWritten          336307200                       # Total number of bytes written to DRAM (Byte)
system.mem_ctrls.dram.avgRdBW              655.352650                       # Average DRAM read bandwidth in MiBytes/s ((Byte/Second))
system.mem_ctrls.dram.avgWrBW              654.227162                       # Average DRAM write bandwidth in MiBytes/s ((Byte/Second))
system.mem_ctrls.dram.peakBW                 12800.00                       # Theoretical peak bandwidth in MiByte/s ((Byte/Second))
system.mem_ctrls.dram.busUtil                   10.23                       # Data bus utilization in percentage (Ratio)
system.mem_ctrls.dram.busUtilRead                5.12                       # Data bus utilization in percentage for reads (Ratio)
system.mem_ctrls.dram.busUtilWrite               5.11                       # Data bus utilization in percentage for writes (Ratio)
system.mem_ctrls.dram.pageHitRate               92.37                       # Row buffer hit rate, read and write combined (Ratio)
system.mem_ctrls.dram.power_state.pwrStateResidencyTicks::UNDEFINED 514052640000                       # Cumulative time (in ticks) in various power states (Tick)
system.mem_ctrls.dram.rank0.actEnergy      2865846060                       # Energy for activate commands per rank (pJ) (Joule)
system.mem_ctrls.dram.rank0.preEnergy      1523229510                       # Energy for precharge commands per rank (pJ) (Joule)
system.mem_ctrls.dram.rank0.readEnergy    18794836200                       # Energy for read commands per rank (pJ) (Joule)
system.mem_ctrls.dram.rank0.writeEnergy   13716667080                       # Energy for write commands per rank (pJ) (Joule)
system.mem_ctrls.dram.rank0.refreshEnergy 40578532800.000008                       # Energy for refresh commands per rank (pJ) (Joule)
system.mem_ctrls.dram.rank0.actBackEnergy 123027575640                       # Energy for active background per rank (pJ) (Joule)
system.mem_ctrls.dram.rank0.preBackEnergy  93794044800                       # Energy for precharge background per rank (pJ) (Joule)
system.mem_ctrls.dram.rank0.actPowerDownEnergy            0                       # Energy for active power-down per rank (pJ) (Joule)
system.mem_ctrls.dram.rank0.prePowerDownEnergy            0                       # Energy for precharge power-down per rank (pJ) (Joule)
system.mem_ctrls.dram.rank0.selfRefreshEnergy            0                       # Energy for self refresh per rank (pJ) (Joule)
system.mem_ctrls.dram.rank0.totalEnergy  294300732090                       # Total energy per rank (pJ) (Joule)
system.mem_ctrls.dram.rank0.averagePower   572.510885                       # Core power per rank (mW) (Watt)
system.mem_ctrls.dram.rank0.totalIdleTime            0                       # Total Idle time Per DRAM Rank (Tick)
system.mem_ctrls.dram.rank0.pwrStateTime::IDLE 240028898250                       # Time in different power states (Tick)
system.mem_ctrls.dram.rank0.pwrStateTime::REF  17165200000                       # Time in different power states (Tick)
system.mem_ctrls.dram.rank0.pwrStateTime::SREF            0                       # Time in different power states (Tick)
system.mem_ctrls.dram.rank0.pwrStateTime::PRE_PDN            0                       # Time in different power states (Tick)
system.mem_ctrls.dram.rank0.pwrStateTime::ACT 256858541750                       # Time in different power states (Tick)
system.mem_ctrls.dram.rank0.pwrStateTime::ACT_PDN            0                       # Time in different power states (Tick)
system.mem_ctrls.dram.rank1.actEnergy      2866381560                       # Energy for activate commands per rank (pJ) (Joule)
system.mem_ctrls.dram.rank1.preEnergy      1523517930                       # Energy for precharge commands per rank (pJ) (Joule)
system.mem_ctrls.dram.rank1.readEnergy    18788981400                       # Energy for read commands per rank (pJ) (Joule)
system.mem_ctrls.dram.rank1.writeEnergy   13713388920                       # Energy for write commands per rank (pJ) (Joule)
system.mem_ctrls.dram.rank1.refreshEnergy 40578532800.000008                       # Energy for refresh commands per rank (pJ) (Joule)
system.mem_ctrls.dram.rank1.actBackEnergy 122989615920                       # Energy for active background per rank (pJ) (Joule)
system.mem_ctrls.dram.rank1.preBackEnergy  93826010880                       # Energy for precharge background per rank (pJ) (Joule)
system.mem_ctrls.dram.rank1.actPowerDownEnergy            0                       # Energy for active power-down per rank (pJ) (Joule)
system.mem_ctrls.dram.rank1.prePowerDownEnergy            0                       # Energy for precharge power-down per rank (pJ) (Joule)
system.mem_ctrls.dram.rank1.selfRefreshEnergy            0                       # Energy for self refresh per rank (pJ) (Joule)
system.mem_ctrls.dram.rank1.totalEnergy  294286429410                       # Total energy per rank (pJ) (Joule)
system.mem_ctrls.dram.rank1.averagePower   572.483062                       # Core power per rank (mW) (Watt)
system.mem_ctrls.dram.rank1.totalIdleTime            0                       # Total Idle time Per DRAM Rank (Tick)
system.mem_ctrls.dram.rank1.pwrStateTime::IDLE 240112002250                       # Time in different power states (Tick)
system.mem_ctrls.dram.rank1.pwrStateTime::REF  17165200000                       # Time in different power states (Tick)
system.mem_ctrls.dram.rank1.pwrStateTime::SREF            0                       # Time in different power states (Tick)
system.mem_ctrls.dram.rank1.pwrStateTime::PRE_PDN            0                       # Time in different power states (Tick)
system.mem_ctrls.dram.rank1.pwrStateTime::ACT 256775437750                       # Time in different power states (Tick)
system.mem_ctrls.dram.rank1.pwrStateTime::ACT_PDN            0                       # Time in different power states (Tick)
system.mem_ctrls.power_state.pwrStateResidencyTicks::UNDEFINED 514052640000                       # Cumulative time (in ticks) in various power states (Tick)
system.membus.transDist::ReadResp                 850                       # Transaction distribution (Count)
system.membus.transDist::WritebackDirty       5254829                       # Transaction distribution (Count)
system.membus.transDist::CleanEvict               298                       # Transaction distribution (Count)
system.membus.transDist::ReadExReq            5262990                       # Transaction distribution (Count)
system.membus.transDist::ReadExResp           5262990                       # Transaction distribution (Count)
system.membus.transDist::ReadSharedReq            850                       # Transaction distribution (Count)
system.membus.pktCount_system.l2.mem_side_port::system.mem_ctrls.port     15782807                       # Packet count per connected requestor and responder (Count)
system.membus.pktCount::total                15782807                       # Packet count per connected requestor and responder (Count)
system.membus.pktSize_system.l2.mem_side_port::system.mem_ctrls.port    673194816                       # Cumulative packet size per connected requestor and responder (Byte)
system.membus.pktSize::total                673194816                       # Cumulative packet size per connected requestor and responder (Byte)
system.membus.snoops                                0                       # Total snoops (Count)
system.membus.snoopTraffic                          0                       # Total snoop traffic (Byte)
system.membus.snoopFanout::samples            5263840                       # Request fanout histogram
system.membus.snoopFanout::mean                     0                       # Request fanout histogram
system.membus.snoopFanout::stdev                    0                       # Request fanout histogram
system.membus.snoopFanout::underflows               0      0.00%      0.00% # Request fanout histogram
system.membus.snoopFanout::0                  5263840    100.00%    100.00% # Request fanout histogram
system.membus.snoopFanout::1                        0      0.00%    100.00% # Request fanout histogram
system.membus.snoopFanout::overflows                0      0.00%    100.00% # Request fanout histogram
system.membus.snoopFanout::min_value                0                       # Request fanout histogram
system.membus.snoopFanout::max_value                0                       # Request fanout histogram
system.membus.snoopFanout::total              5263840                       # Request fanout histogram
system.membus.power_state.pwrStateResidencyTicks::UNDEFINED 514052640000                       # Cumulative time (in ticks) in various power states (Tick)
system.membus.reqLayer0.occupancy         31560969000                       # Layer occupancy (ticks) (Tick)
system.membus.reqLayer0.utilization               0.1                       # Layer utilization (Ratio)
system.membus.respLayer1.occupancy        27685471250                       # Layer occupancy (ticks) (Tick)
system.membus.respLayer1.utilization              0.1                       # Layer utilization (Ratio)
system.membus.snoop_filter.totRequests       10518967                       # Total number of requests made to the snoop filter. (Count)
system.membus.snoop_filter.hitSingleRequests      5255138                       # Number of requests hitting in the snoop filter with a single holder of the requested data. (Count)
system.membus.snoop_filter.hitMultiRequests            0                       # Number of requests hitting in the snoop filter with multiple (>1) holders of the requested data. (Count)
system.membus.snoop_filter.totSnoops                0                       # Total number of snoops made to the snoop filter. (Count)
system.membus.snoop_filter.hitSingleSnoops            0                       # Number of snoops hitting in the snoop filter with a single holder of the requested data. (Count)
system.membus.snoop_filter.hitMultiSnoops            0                       # Number of snoops hitting in the snoop filter with multiple (>1) holders of the requested data. (Count)
system.tol2bus.transDist::ReadResp               2780                       # Transaction distribution (Count)
system.tol2bus.transDist::WritebackDirty     10518748                       # Transaction distribution (Count)
system.tol2bus.transDist::WritebackClean          136                       # Transaction distribution (Count)
system.tol2bus.transDist::CleanEvict             2663                       # Transaction distribution (Count)
system.tol2bus.transDist::ReadExReq           5264613                       # Transaction distribution (Count)
system.tol2bus.transDist::ReadExResp          5264613                       # Transaction distribution (Count)
system.tol2bus.transDist::ReadCleanReq            646                       # Transaction distribution (Count)
system.tol2bus.transDist::ReadSharedReq          2134                       # Transaction distribution (Count)
system.tol2bus.pktCount_system.cpu.icache.mem_side_port::system.l2.cpu_side_port         1428                       # Packet count per connected requestor and responder (Count)
system.tol2bus.pktCount_system.cpu.dcache.mem_side_port::system.l2.cpu_side_port     15799217                       # Packet count per connected requestor and responder (Count)
system.tol2bus.pktCount::total               15800645                       # Packet count per connected requestor and responder (Count)
system.tol2bus.pktSize_system.cpu.icache.mem_side_port::system.l2.cpu_side_port        50048                       # Cumulative packet size per connected requestor and responder (Byte)
system.tol2bus.pktSize_system.cpu.dcache.mem_side_port::system.l2.cpu_side_port    673962624                       # Cumulative packet size per connected requestor and responder (Byte)
system.tol2bus.pktSize::total               674012672                       # Cumulative packet size per connected requestor and responder (Byte)
system.tol2bus.snoops                         5255688                       # Total snoops (Count)
system.tol2bus.snoopTraffic                 336309056                       # Total snoop traffic (Byte)
system.tol2bus.snoopFanout::samples          10523081                       # Request fanout histogram
system.tol2bus.snoopFanout::mean             0.000089                       # Request fanout histogram
system.tol2bus.snoopFanout::stdev            0.009441                       # Request fanout histogram
system.tol2bus.snoopFanout::underflows              0      0.00%      0.00% # Request fanout histogram
system.tol2bus.snoopFanout::0                10522143     99.99%     99.99% # Request fanout histogram
system.tol2bus.snoopFanout::1                     938      0.01%    100.00% # Request fanout histogram
system.tol2bus.snoopFanout::2                       0      0.00%    100.00% # Request fanout histogram
system.tol2bus.snoopFanout::overflows               0      0.00%    100.00% # Request fanout histogram
system.tol2bus.snoopFanout::min_value               0                       # Request fanout histogram
system.tol2bus.snoopFanout::max_value               1                       # Request fanout histogram
system.tol2bus.snoopFanout::total            10523081                       # Request fanout histogram
system.tol2bus.power_state.pwrStateResidencyTicks::UNDEFINED 514052640000                       # Cumulative time (in ticks) in various power states (Tick)
system.tol2bus.reqLayer0.occupancy        10530681000                       # Layer occupancy (ticks) (Tick)
system.tol2bus.reqLayer0.utilization              0.0                       # Layer utilization (Ratio)
system.tol2bus.respLayer0.occupancy            969499                       # Layer occupancy (ticks) (Tick)
system.tol2bus.respLayer0.utilization             0.0                       # Layer utilization (Ratio)
system.tol2bus.respLayer1.occupancy        7900122496                       # Layer occupancy (ticks) (Tick)
system.tol2bus.respLayer1.utilization             0.0                       # Layer utilization (Ratio)
system.tol2bus.snoop_filter.totRequests      10533252                       # Total number of requests made to the snoop filter. (Count)
system.tol2bus.snoop_filter.hitSingleRequests      5265859                       # Number of requests hitting in the snoop filter with a single holder of the requested data. (Count)
system.tol2bus.snoop_filter.hitMultiRequests          377                       # Number of requests hitting in the snoop filter with multiple (>1) holders of the requested data. (Count)
system.tol2bus.snoop_filter.totSnoops             561                       # Total number of snoops made to the snoop filter. (Count)
system.tol2bus.snoop_filter.hitSingleSnoops          561                       # Number of snoops hitting in the snoop filter with a single holder of the requested data. (Count)
system.tol2bus.snoop_filter.hitMultiSnoops            0                       # Number of snoops hitting in the snoop filter with multiple (>1) holders of the requested data. (Count)
system.voltage_domain.voltage                       1                       # Voltage in Volts (Volt)
system.workload.inst.arm                            0                       # number of arm instructions executed (Count)
system.workload.inst.quiesce                        0                       # number of quiesce instructions executed (Count)
system.cpu.idleCycles                       806412581                       # Total number of cycles that the object has spent stopped (Unspecified)
system.cpu.tickCycles                       221692699                       # Number of cycles that the object actually ticked (Unspecified)

---------- End Simulation Statistics   ----------
