
---------- Begin Simulation Statistics ----------
simSeconds                                   0.513972                       # Number of seconds simulated (Second)
simTicks                                 513972004000                       # Number of ticks simulated (Tick)
finalTick                                513972004000                       # Number of ticks from beginning of simulation (restored from checkpoints and never reset) (Tick)
simFreq                                  1000000000000                       # The number of ticks per simulated second ((Tick/Second))
hostSeconds                                    742.51                       # Real time elapsed on the host (Second)
hostTickRate                                692209190                       # The number of ticks simulated per host second (ticks/s) ((Tick/Second))
hostMemory                                     728432                       # Number of bytes of host memory used (Byte)
simInsts                                    100000000                       # Number of instructions simulated (Count)
simOps                                      184220346                       # Number of ops (including micro ops) simulated (Count)
hostInstRate                                   134678                       # Simulator instruction rate (inst/s) ((Count/Second))
hostOpRate                                     248105                       # Simulator op (including micro ops) rate (op/s) ((Count/Second))
system.clk_domain.clock                          1000                       # Clock period in ticks (Tick)
system.cpu.numCycles                       1027944008                       # Number of cpu cycles simulated (Cycle)
system.cpu.numWorkItemsStarted                      0                       # Number of work items this cpu started (Count)
system.cpu.numWorkItemsCompleted                    0                       # Number of work items this cpu completed (Count)
system.cpu.numInsts                         100000000                       # Number of instructions committed (Count)
system.cpu.numOps                           184220346                       # Number of ops (including micro ops) committed (Count)
system.cpu.numDiscardedOps                       4314                       # Number of ops (including micro ops) which were discarded before commit (Count)
system.cpu.numFetchSuspends                         0                       # Number of times Execute suspended instruction fetching (Count)
system.cpu.cpi                              10.279440                       # CPI: cycles per instruction ((Cycle/Count))
system.cpu.ipc                               0.097282                       # IPC: instructions per cycle ((Count/Cycle))
system.cpu.committedInstType_0::No_OpClass            0      0.00%      0.00% # Class of committed instruction (Count)
system.cpu.committedInstType_0::IntAlu       97640466     53.00%     53.00% # Class of committed instruction (Count)
system.cpu.committedInstType_0::IntMult        114699      0.06%     53.06% # Class of committed instruction (Count)
system.cpu.committedInstType_0::IntDiv              0      0.00%     53.06% # Class of committed instruction (Count)
system.cpu.committedInstType_0::FloatAdd            0      0.00%     53.06% # Class of committed instruction (Count)
system.cpu.committedInstType_0::FloatCmp            0      0.00%     53.06% # Class of committed instruction (Count)
system.cpu.committedInstType_0::FloatCvt            0      0.00%     53.06% # Class of committed instruction (Count)
system.cpu.committedInstType_0::FloatMult            0      0.00%     53.06% # Class of committed instruction (Count)
system.cpu.committedInstType_0::FloatMultAcc            0      0.00%     53.06% # Class of committed instruction (Count)
system.cpu.committedInstType_0::FloatDiv            0      0.00%     53.06% # Class of committed instruction (Count)
system.cpu.committedInstType_0::FloatMisc            0      0.00%     53.06% # Class of committed instruction (Count)
system.cpu.committedInstType_0::FloatSqrt            0      0.00%     53.06% # Class of committed instruction (Count)
system.cpu.committedInstType_0::SimdAdd             8      0.00%     53.06% # Class of committed instruction (Count)
system.cpu.committedInstType_0::SimdAddAcc            0      0.00%     53.06% # Class of committed instruction (Count)
system.cpu.committedInstType_0::SimdAlu             8      0.00%     53.06% # Class of committed instruction (Count)
system.cpu.committedInstType_0::SimdCmp             6      0.00%     53.06% # Class of committed instruction (Count)
system.cpu.committedInstType_0::SimdCvt             0      0.00%     53.06% # Class of committed instruction (Count)
system.cpu.committedInstType_0::SimdMisc            1      0.00%     53.06% # Class of committed instruction (Count)
system.cpu.committedInstType_0::SimdMult            0      0.00%     53.06% # Class of committed instruction (Count)
system.cpu.committedInstType_0::SimdMultAcc            0      0.00%     53.06% # Class of committed instruction (Count)
system.cpu.committedInstType_0::SimdShift            0      0.00%     53.06% # Class of committed instruction (Count)
system.cpu.committedInstType_0::SimdShiftAcc            0      0.00%     53.06% # Class of committed instruction (Count)
system.cpu.committedInstType_0::SimdDiv             0      0.00%     53.06% # Class of committed instruction (Count)
system.cpu.committedInstType_0::SimdSqrt            0      0.00%     53.06% # Class of committed instruction (Count)
system.cpu.committedInstType_0::SimdFloatAdd            0      0.00%     53.06% # Class of committed instruction (Count)
system.cpu.committedInstType_0::SimdFloatAlu            0      0.00%     53.06% # Class of committed instruction (Count)
system.cpu.committedInstType_0::SimdFloatCmp            0      0.00%     53.06% # Class of committed instruction (Count)
system.cpu.committedInstType_0::SimdFloatCvt            0      0.00%     53.06% # Class of committed instruction (Count)
system.cpu.committedInstType_0::SimdFloatDiv            0      0.00%     53.06% # Class of committed instruction (Count)
system.cpu.committedInstType_0::SimdFloatMisc            6      0.00%     53.06% # Class of committed instruction (Count)
system.cpu.committedInstType_0::SimdFloatMult            0      0.00%     53.06% # Class of committed instruction (Count)
system.cpu.committedInstType_0::SimdFloatMultAcc            0      0.00%     53.06% # Class of committed instruction (Count)
system.cpu.committedInstType_0::SimdFloatSqrt            0      0.00%     53.06% # Class of committed instruction (Count)
system.cpu.committedInstType_0::SimdReduceAdd            0      0.00%     53.06% # Class of committed instruction (Count)
system.cpu.committedInstType_0::SimdReduceAlu            0      0.00%     53.06% # Class of committed instruction (Count)
system.cpu.committedInstType_0::SimdReduceCmp            0      0.00%     53.06% # Class of committed instruction (Count)
system.cpu.committedInstType_0::SimdFloatReduceAdd            0      0.00%     53.06% # Class of committed instruction (Count)
system.cpu.committedInstType_0::SimdFloatReduceCmp            0      0.00%     53.06% # Class of committed instruction (Count)
system.cpu.committedInstType_0::SimdAes             0      0.00%     53.06% # Class of committed instruction (Count)
system.cpu.committedInstType_0::SimdAesMix            0      0.00%     53.06% # Class of committed instruction (Count)
system.cpu.committedInstType_0::SimdSha1Hash            0      0.00%     53.06% # Class of committed instruction (Count)
system.cpu.committedInstType_0::SimdSha1Hash2            0      0.00%     53.06% # Class of committed instruction (Count)
system.cpu.committedInstType_0::SimdSha256Hash            0      0.00%     53.06% # Class of committed instruction (Count)
system.cpu.committedInstType_0::SimdSha256Hash2            0      0.00%     53.06% # Class of committed instruction (Count)
system.cpu.committedInstType_0::SimdShaSigma2            0      0.00%     53.06% # Class of committed instruction (Count)
system.cpu.committedInstType_0::SimdShaSigma3            0      0.00%     53.06% # Class of committed instruction (Count)
system.cpu.committedInstType_0::SimdPredAlu            0      0.00%     53.06% # Class of committed instruction (Count)
system.cpu.committedInstType_0::MemRead       2082588      1.13%     54.19% # Class of committed instruction (Count)
system.cpu.committedInstType_0::MemWrite     84382564     45.81%    100.00% # Class of committed instruction (Count)
system.cpu.committedInstType_0::FloatMemRead            0      0.00%    100.00% # Class of committed instruction (Count)
system.cpu.committedInstType_0::FloatMemWrite            0      0.00%    100.00% # Class of committed instruction (Count)
system.cpu.committedInstType_0::IprAccess            0      0.00%    100.00% # Class of committed instruction (Count)
system.cpu.committedInstType_0::InstPrefetch            0      0.00%    100.00% # Class of committed instruction (Count)
system.cpu.committedInstType_0::total       184220346                       # Class of committed instruction (Count)
system.cpu.branchPred.lookups                10658368                       # Number of BP lookups (Count)
system.cpu.branchPred.condPredicted          10650103                       # Number of conditional branches predicted (Count)
system.cpu.branchPred.condIncorrect              1447                       # Number of conditional branches incorrect (Count)
system.cpu.branchPred.BTBLookups             10650408                       # Number of BTB lookups (Count)
system.cpu.branchPred.BTBHits                10649074                       # Number of BTB hits (Count)
system.cpu.branchPred.BTBHitRatio            0.999875                       # BTB Hit Ratio (Ratio)
system.cpu.branchPred.RASUsed                    2705                       # Number of times the RAS was used to get a target. (Count)
system.cpu.branchPred.RASIncorrect                  2                       # Number of incorrect RAS predictions. (Count)
system.cpu.branchPred.indirectLookups             196                       # Number of indirect predictor lookups. (Count)
system.cpu.branchPred.indirectHits                 22                       # Number of indirect target hits. (Count)
system.cpu.branchPred.indirectMisses              174                       # Number of indirect misses. (Count)
system.cpu.branchPred.indirectMispredicted          105                       # Number of mispredicted indirect branches. (Count)
system.cpu.dcache.demandHits::cpu.data       75856866                       # number of demand (read+write) hits (Count)
system.cpu.dcache.demandHits::total          75856866                       # number of demand (read+write) hits (Count)
system.cpu.dcache.overallHits::cpu.data      75856896                       # number of overall hits (Count)
system.cpu.dcache.overallHits::total         75856896                       # number of overall hits (Count)
system.cpu.dcache.demandMisses::cpu.data     10525169                       # number of demand (read+write) misses (Count)
system.cpu.dcache.demandMisses::total        10525169                       # number of demand (read+write) misses (Count)
system.cpu.dcache.overallMisses::cpu.data     10525210                       # number of overall misses (Count)
system.cpu.dcache.overallMisses::total       10525210                       # number of overall misses (Count)
system.cpu.dcache.demandMissLatency::cpu.data 877044828499                       # number of demand (read+write) miss ticks (Tick)
system.cpu.dcache.demandMissLatency::total 877044828499                       # number of demand (read+write) miss ticks (Tick)
system.cpu.dcache.overallMissLatency::cpu.data 877044828499                       # number of overall miss ticks (Tick)
system.cpu.dcache.overallMissLatency::total 877044828499                       # number of overall miss ticks (Tick)
system.cpu.dcache.demandAccesses::cpu.data     86382035                       # number of demand (read+write) accesses (Count)
system.cpu.dcache.demandAccesses::total      86382035                       # number of demand (read+write) accesses (Count)
system.cpu.dcache.overallAccesses::cpu.data     86382106                       # number of overall (read+write) accesses (Count)
system.cpu.dcache.overallAccesses::total     86382106                       # number of overall (read+write) accesses (Count)
system.cpu.dcache.demandMissRate::cpu.data     0.121844                       # miss rate for demand accesses (Ratio)
system.cpu.dcache.demandMissRate::total      0.121844                       # miss rate for demand accesses (Ratio)
system.cpu.dcache.overallMissRate::cpu.data     0.121845                       # miss rate for overall accesses (Ratio)
system.cpu.dcache.overallMissRate::total     0.121845                       # miss rate for overall accesses (Ratio)
system.cpu.dcache.demandAvgMissLatency::cpu.data 83328.336913                       # average overall miss latency ((Cycle/Count))
system.cpu.dcache.demandAvgMissLatency::total 83328.336913                       # average overall miss latency ((Cycle/Count))
system.cpu.dcache.overallAvgMissLatency::cpu.data 83328.012315                       # average overall miss latency ((Cycle/Count))
system.cpu.dcache.overallAvgMissLatency::total 83328.012315                       # average overall miss latency ((Cycle/Count))
system.cpu.dcache.blockedCycles::no_mshrs          317                       # number of cycles access was blocked (Cycle)
system.cpu.dcache.blockedCycles::no_targets            0                       # number of cycles access was blocked (Cycle)
system.cpu.dcache.blockedCauses::no_mshrs            6                       # number of times access was blocked (Count)
system.cpu.dcache.blockedCauses::no_targets            0                       # number of times access was blocked (Count)
system.cpu.dcache.avgBlocked::no_mshrs      52.833333                       # average number of cycles each access was blocked ((Cycle/Count))
system.cpu.dcache.avgBlocked::no_targets          nan                       # average number of cycles each access was blocked ((Cycle/Count))
system.cpu.dcache.writebacks::writebacks      5261696                       # number of writebacks (Count)
system.cpu.dcache.writebacks::total           5261696                       # number of writebacks (Count)
system.cpu.dcache.demandMshrHits::cpu.data      5260632                       # number of demand (read+write) MSHR hits (Count)
system.cpu.dcache.demandMshrHits::total       5260632                       # number of demand (read+write) MSHR hits (Count)
system.cpu.dcache.overallMshrHits::cpu.data      5260632                       # number of overall MSHR hits (Count)
system.cpu.dcache.overallMshrHits::total      5260632                       # number of overall MSHR hits (Count)
system.cpu.dcache.demandMshrMisses::cpu.data      5264537                       # number of demand (read+write) MSHR misses (Count)
system.cpu.dcache.demandMshrMisses::total      5264537                       # number of demand (read+write) MSHR misses (Count)
system.cpu.dcache.overallMshrMisses::cpu.data      5264571                       # number of overall MSHR misses (Count)
system.cpu.dcache.overallMshrMisses::total      5264571                       # number of overall MSHR misses (Count)
system.cpu.dcache.demandMshrMissLatency::cpu.data 432073393500                       # number of demand (read+write) MSHR miss ticks (Tick)
system.cpu.dcache.demandMshrMissLatency::total 432073393500                       # number of demand (read+write) MSHR miss ticks (Tick)
system.cpu.dcache.overallMshrMissLatency::cpu.data 432076266500                       # number of overall MSHR miss ticks (Tick)
system.cpu.dcache.overallMshrMissLatency::total 432076266500                       # number of overall MSHR miss ticks (Tick)
system.cpu.dcache.demandMshrMissRate::cpu.data     0.060945                       # mshr miss ratio for demand accesses (Ratio)
system.cpu.dcache.demandMshrMissRate::total     0.060945                       # mshr miss ratio for demand accesses (Ratio)
system.cpu.dcache.overallMshrMissRate::cpu.data     0.060945                       # mshr miss ratio for overall accesses (Ratio)
system.cpu.dcache.overallMshrMissRate::total     0.060945                       # mshr miss ratio for overall accesses (Ratio)
system.cpu.dcache.demandAvgMshrMissLatency::cpu.data 82072.439324                       # average overall mshr miss latency ((Cycle/Count))
system.cpu.dcache.demandAvgMshrMissLatency::total 82072.439324                       # average overall mshr miss latency ((Cycle/Count))
system.cpu.dcache.overallAvgMshrMissLatency::cpu.data 82072.455002                       # average overall mshr miss latency ((Cycle/Count))
system.cpu.dcache.overallAvgMshrMissLatency::total 82072.455002                       # average overall mshr miss latency ((Cycle/Count))
system.cpu.dcache.replacements                5262524                       # number of replacements (Count)
system.cpu.dcache.LoadLockedReq.hits::cpu.data           33                       # number of LoadLockedReq hits (Count)
system.cpu.dcache.LoadLockedReq.hits::total           33                       # number of LoadLockedReq hits (Count)
system.cpu.dcache.LoadLockedReq.misses::cpu.data            1                       # number of LoadLockedReq misses (Count)
system.cpu.dcache.LoadLockedReq.misses::total            1                       # number of LoadLockedReq misses (Count)
system.cpu.dcache.LoadLockedReq.missLatency::cpu.data       100000                       # number of LoadLockedReq miss ticks (Tick)
system.cpu.dcache.LoadLockedReq.missLatency::total       100000                       # number of LoadLockedReq miss ticks (Tick)
system.cpu.dcache.LoadLockedReq.accesses::cpu.data           34                       # number of LoadLockedReq accesses(hits+misses) (Count)
system.cpu.dcache.LoadLockedReq.accesses::total           34                       # number of LoadLockedReq accesses(hits+misses) (Count)
system.cpu.dcache.LoadLockedReq.missRate::cpu.data     0.029412                       # miss rate for LoadLockedReq accesses (Ratio)
system.cpu.dcache.LoadLockedReq.missRate::total     0.029412                       # miss rate for LoadLockedReq accesses (Ratio)
system.cpu.dcache.LoadLockedReq.avgMissLatency::cpu.data       100000                       # average LoadLockedReq miss latency ((Tick/Count))
system.cpu.dcache.LoadLockedReq.avgMissLatency::total       100000                       # average LoadLockedReq miss latency ((Tick/Count))
system.cpu.dcache.LoadLockedReq.mshrMisses::cpu.data            1                       # number of LoadLockedReq MSHR misses (Count)
system.cpu.dcache.LoadLockedReq.mshrMisses::total            1                       # number of LoadLockedReq MSHR misses (Count)
system.cpu.dcache.LoadLockedReq.mshrMissLatency::cpu.data        99000                       # number of LoadLockedReq MSHR miss ticks (Tick)
system.cpu.dcache.LoadLockedReq.mshrMissLatency::total        99000                       # number of LoadLockedReq MSHR miss ticks (Tick)
system.cpu.dcache.LoadLockedReq.mshrMissRate::cpu.data     0.029412                       # mshr miss rate for LoadLockedReq accesses (Ratio)
system.cpu.dcache.LoadLockedReq.mshrMissRate::total     0.029412                       # mshr miss rate for LoadLockedReq accesses (Ratio)
system.cpu.dcache.LoadLockedReq.avgMshrMissLatency::cpu.data        99000                       # average LoadLockedReq mshr miss latency ((Tick/Count))
system.cpu.dcache.LoadLockedReq.avgMshrMissLatency::total        99000                       # average LoadLockedReq mshr miss latency ((Tick/Count))
system.cpu.dcache.ReadReq.hits::cpu.data      2042750                       # number of ReadReq hits (Count)
system.cpu.dcache.ReadReq.hits::total         2042750                       # number of ReadReq hits (Count)
system.cpu.dcache.ReadReq.misses::cpu.data         1025                       # number of ReadReq misses (Count)
system.cpu.dcache.ReadReq.misses::total          1025                       # number of ReadReq misses (Count)
system.cpu.dcache.ReadReq.missLatency::cpu.data     33748000                       # number of ReadReq miss ticks (Tick)
system.cpu.dcache.ReadReq.missLatency::total     33748000                       # number of ReadReq miss ticks (Tick)
system.cpu.dcache.ReadReq.accesses::cpu.data      2043775                       # number of ReadReq accesses(hits+misses) (Count)
system.cpu.dcache.ReadReq.accesses::total      2043775                       # number of ReadReq accesses(hits+misses) (Count)
system.cpu.dcache.ReadReq.missRate::cpu.data     0.000502                       # miss rate for ReadReq accesses (Ratio)
system.cpu.dcache.ReadReq.missRate::total     0.000502                       # miss rate for ReadReq accesses (Ratio)
system.cpu.dcache.ReadReq.avgMissLatency::cpu.data 32924.878049                       # average ReadReq miss latency ((Tick/Count))
system.cpu.dcache.ReadReq.avgMissLatency::total 32924.878049                       # average ReadReq miss latency ((Tick/Count))
system.cpu.dcache.ReadReq.mshrHits::cpu.data           39                       # number of ReadReq MSHR hits (Count)
system.cpu.dcache.ReadReq.mshrHits::total           39                       # number of ReadReq MSHR hits (Count)
system.cpu.dcache.ReadReq.mshrMisses::cpu.data          986                       # number of ReadReq MSHR misses (Count)
system.cpu.dcache.ReadReq.mshrMisses::total          986                       # number of ReadReq MSHR misses (Count)
system.cpu.dcache.ReadReq.mshrMissLatency::cpu.data     30210500                       # number of ReadReq MSHR miss ticks (Tick)
system.cpu.dcache.ReadReq.mshrMissLatency::total     30210500                       # number of ReadReq MSHR miss ticks (Tick)
system.cpu.dcache.ReadReq.mshrMissRate::cpu.data     0.000482                       # mshr miss rate for ReadReq accesses (Ratio)
system.cpu.dcache.ReadReq.mshrMissRate::total     0.000482                       # mshr miss rate for ReadReq accesses (Ratio)
system.cpu.dcache.ReadReq.avgMshrMissLatency::cpu.data 30639.452333                       # average ReadReq mshr miss latency ((Tick/Count))
system.cpu.dcache.ReadReq.avgMshrMissLatency::total 30639.452333                       # average ReadReq mshr miss latency ((Tick/Count))
system.cpu.dcache.SoftPFReq.hits::cpu.data           30                       # number of SoftPFReq hits (Count)
system.cpu.dcache.SoftPFReq.hits::total            30                       # number of SoftPFReq hits (Count)
system.cpu.dcache.SoftPFReq.misses::cpu.data           41                       # number of SoftPFReq misses (Count)
system.cpu.dcache.SoftPFReq.misses::total           41                       # number of SoftPFReq misses (Count)
system.cpu.dcache.SoftPFReq.accesses::cpu.data           71                       # number of SoftPFReq accesses(hits+misses) (Count)
system.cpu.dcache.SoftPFReq.accesses::total           71                       # number of SoftPFReq accesses(hits+misses) (Count)
system.cpu.dcache.SoftPFReq.missRate::cpu.data     0.577465                       # miss rate for SoftPFReq accesses (Ratio)
system.cpu.dcache.SoftPFReq.missRate::total     0.577465                       # miss rate for SoftPFReq accesses (Ratio)
system.cpu.dcache.SoftPFReq.mshrMisses::cpu.data           34                       # number of SoftPFReq MSHR misses (Count)
system.cpu.dcache.SoftPFReq.mshrMisses::total           34                       # number of SoftPFReq MSHR misses (Count)
system.cpu.dcache.SoftPFReq.mshrMissLatency::cpu.data      2873000                       # number of SoftPFReq MSHR miss ticks (Tick)
system.cpu.dcache.SoftPFReq.mshrMissLatency::total      2873000                       # number of SoftPFReq MSHR miss ticks (Tick)
system.cpu.dcache.SoftPFReq.mshrMissRate::cpu.data     0.478873                       # mshr miss rate for SoftPFReq accesses (Ratio)
system.cpu.dcache.SoftPFReq.mshrMissRate::total     0.478873                       # mshr miss rate for SoftPFReq accesses (Ratio)
system.cpu.dcache.SoftPFReq.avgMshrMissLatency::cpu.data        84500                       # average SoftPFReq mshr miss latency ((Tick/Count))
system.cpu.dcache.SoftPFReq.avgMshrMissLatency::total        84500                       # average SoftPFReq mshr miss latency ((Tick/Count))
system.cpu.dcache.StoreCondReq.hits::cpu.data           34                       # number of StoreCondReq hits (Count)
system.cpu.dcache.StoreCondReq.hits::total           34                       # number of StoreCondReq hits (Count)
system.cpu.dcache.StoreCondReq.accesses::cpu.data           34                       # number of StoreCondReq accesses(hits+misses) (Count)
system.cpu.dcache.StoreCondReq.accesses::total           34                       # number of StoreCondReq accesses(hits+misses) (Count)
system.cpu.dcache.WriteReq.hits::cpu.data     73814116                       # number of WriteReq hits (Count)
system.cpu.dcache.WriteReq.hits::total       73814116                       # number of WriteReq hits (Count)
system.cpu.dcache.WriteReq.misses::cpu.data     10524144                       # number of WriteReq misses (Count)
system.cpu.dcache.WriteReq.misses::total     10524144                       # number of WriteReq misses (Count)
system.cpu.dcache.WriteReq.missLatency::cpu.data 877011080499                       # number of WriteReq miss ticks (Tick)
system.cpu.dcache.WriteReq.missLatency::total 877011080499                       # number of WriteReq miss ticks (Tick)
system.cpu.dcache.WriteReq.accesses::cpu.data     84338260                       # number of WriteReq accesses(hits+misses) (Count)
system.cpu.dcache.WriteReq.accesses::total     84338260                       # number of WriteReq accesses(hits+misses) (Count)
system.cpu.dcache.WriteReq.missRate::cpu.data     0.124785                       # miss rate for WriteReq accesses (Ratio)
system.cpu.dcache.WriteReq.missRate::total     0.124785                       # miss rate for WriteReq accesses (Ratio)
system.cpu.dcache.WriteReq.avgMissLatency::cpu.data 83333.245963                       # average WriteReq miss latency ((Tick/Count))
system.cpu.dcache.WriteReq.avgMissLatency::total 83333.245963                       # average WriteReq miss latency ((Tick/Count))
system.cpu.dcache.WriteReq.mshrHits::cpu.data      5260593                       # number of WriteReq MSHR hits (Count)
system.cpu.dcache.WriteReq.mshrHits::total      5260593                       # number of WriteReq MSHR hits (Count)
system.cpu.dcache.WriteReq.mshrMisses::cpu.data      5263551                       # number of WriteReq MSHR misses (Count)
system.cpu.dcache.WriteReq.mshrMisses::total      5263551                       # number of WriteReq MSHR misses (Count)
system.cpu.dcache.WriteReq.mshrMissLatency::cpu.data 432043183000                       # number of WriteReq MSHR miss ticks (Tick)
system.cpu.dcache.WriteReq.mshrMissLatency::total 432043183000                       # number of WriteReq MSHR miss ticks (Tick)
system.cpu.dcache.WriteReq.mshrMissRate::cpu.data     0.062410                       # mshr miss rate for WriteReq accesses (Ratio)
system.cpu.dcache.WriteReq.mshrMissRate::total     0.062410                       # mshr miss rate for WriteReq accesses (Ratio)
system.cpu.dcache.WriteReq.avgMshrMissLatency::cpu.data 82082.074060                       # average WriteReq mshr miss latency ((Tick/Count))
system.cpu.dcache.WriteReq.avgMshrMissLatency::total 82082.074060                       # average WriteReq mshr miss latency ((Tick/Count))
system.cpu.dcache.power_state.pwrStateResidencyTicks::UNDEFINED 513972004000                       # Cumulative time (in ticks) in various power states (Tick)
system.cpu.dcache.tags.tagsInUse          2043.798047                       # Average ticks per tags in use ((Tick/Count))
system.cpu.dcache.tags.totalRefs             81121535                       # Total number of references to valid blocks. (Count)
system.cpu.dcache.tags.sampledRefs            5264572                       # Sample count of references to valid blocks. (Count)
system.cpu.dcache.tags.avgRefs              15.408952                       # Average number of references to valid blocks. ((Count/Count))
system.cpu.dcache.tags.warmupTick              176500                       # The tick when the warmup percentage was hit. (Tick)
system.cpu.dcache.tags.occupancies::cpu.data  2043.798047                       # Average occupied blocks per tick, per requestor ((Count/Tick))
system.cpu.dcache.tags.avgOccs::cpu.data     0.997948                       # Average percentage of cache occupancy ((Ratio/Tick))
system.cpu.dcache.tags.avgOccs::total        0.997948                       # Average percentage of cache occupancy ((Ratio/Tick))
system.cpu.dcache.tags.occupanciesTaskId::1024         2048                       # Occupied blocks per task id (Count)
system.cpu.dcache.tags.ageTaskId_1024::0          101                       # Occupied blocks per task id, per block age (Count)
system.cpu.dcache.tags.ageTaskId_1024::1          928                       # Occupied blocks per task id, per block age (Count)
system.cpu.dcache.tags.ageTaskId_1024::2         1019                       # Occupied blocks per task id, per block age (Count)
system.cpu.dcache.tags.ratioOccsTaskId::1024            1                       # Ratio of occupied blocks and all blocks, per task id (Ratio)
system.cpu.dcache.tags.tagAccesses           91646746                       # Number of tag accesses (Count)
system.cpu.dcache.tags.dataAccesses          91646746                       # Number of data accesses (Count)
system.cpu.dcache.tags.power_state.pwrStateResidencyTicks::UNDEFINED 513972004000                       # Cumulative time (in ticks) in various power states (Tick)
system.cpu.fetch2.intInstructions            45069767                       # Number of integer instructions successfully decoded (Count)
system.cpu.fetch2.fpInstructions                    0                       # Number of floating point instructions successfully decoded (Count)
system.cpu.fetch2.vecInstructions                   0                       # Number of SIMD instructions successfully decoded (Count)
system.cpu.fetch2.loadInstructions            2086168                       # Number of memory load instructions successfully decoded (Count)
system.cpu.fetch2.storeInstructions            169144                       # Number of memory store instructions successfully decoded (Count)
system.cpu.fetch2.amoInstructions                   0                       # Number of memory atomic instructions successfully decoded (Count)
system.cpu.icache.demandHits::cpu.inst       32134068                       # number of demand (read+write) hits (Count)
system.cpu.icache.demandHits::total          32134068                       # number of demand (read+write) hits (Count)
system.cpu.icache.overallHits::cpu.inst      32134068                       # number of overall hits (Count)
system.cpu.icache.overallHits::total         32134068                       # number of overall hits (Count)
system.cpu.icache.demandMisses::cpu.inst          589                       # number of demand (read+write) misses (Count)
system.cpu.icache.demandMisses::total             589                       # number of demand (read+write) misses (Count)
system.cpu.icache.overallMisses::cpu.inst          589                       # number of overall misses (Count)
system.cpu.icache.overallMisses::total            589                       # number of overall misses (Count)
system.cpu.icache.demandMissLatency::cpu.inst     47032000                       # number of demand (read+write) miss ticks (Tick)
system.cpu.icache.demandMissLatency::total     47032000                       # number of demand (read+write) miss ticks (Tick)
system.cpu.icache.overallMissLatency::cpu.inst     47032000                       # number of overall miss ticks (Tick)
system.cpu.icache.overallMissLatency::total     47032000                       # number of overall miss ticks (Tick)
system.cpu.icache.demandAccesses::cpu.inst     32134657                       # number of demand (read+write) accesses (Count)
system.cpu.icache.demandAccesses::total      32134657                       # number of demand (read+write) accesses (Count)
system.cpu.icache.overallAccesses::cpu.inst     32134657                       # number of overall (read+write) accesses (Count)
system.cpu.icache.overallAccesses::total     32134657                       # number of overall (read+write) accesses (Count)
system.cpu.icache.demandMissRate::cpu.inst     0.000018                       # miss rate for demand accesses (Ratio)
system.cpu.icache.demandMissRate::total      0.000018                       # miss rate for demand accesses (Ratio)
system.cpu.icache.overallMissRate::cpu.inst     0.000018                       # miss rate for overall accesses (Ratio)
system.cpu.icache.overallMissRate::total     0.000018                       # miss rate for overall accesses (Ratio)
system.cpu.icache.demandAvgMissLatency::cpu.inst 79850.594228                       # average overall miss latency ((Cycle/Count))
system.cpu.icache.demandAvgMissLatency::total 79850.594228                       # average overall miss latency ((Cycle/Count))
system.cpu.icache.overallAvgMissLatency::cpu.inst 79850.594228                       # average overall miss latency ((Cycle/Count))
system.cpu.icache.overallAvgMissLatency::total 79850.594228                       # average overall miss latency ((Cycle/Count))
system.cpu.icache.blockedCycles::no_mshrs            0                       # number of cycles access was blocked (Cycle)
system.cpu.icache.blockedCycles::no_targets            0                       # number of cycles access was blocked (Cycle)
system.cpu.icache.blockedCauses::no_mshrs            0                       # number of times access was blocked (Count)
system.cpu.icache.blockedCauses::no_targets            0                       # number of times access was blocked (Count)
system.cpu.icache.avgBlocked::no_mshrs            nan                       # average number of cycles each access was blocked ((Cycle/Count))
system.cpu.icache.avgBlocked::no_targets          nan                       # average number of cycles each access was blocked ((Cycle/Count))
system.cpu.icache.writebacks::writebacks            1                       # number of writebacks (Count)
system.cpu.icache.writebacks::total                 1                       # number of writebacks (Count)
system.cpu.icache.demandMshrMisses::cpu.inst          589                       # number of demand (read+write) MSHR misses (Count)
system.cpu.icache.demandMshrMisses::total          589                       # number of demand (read+write) MSHR misses (Count)
system.cpu.icache.overallMshrMisses::cpu.inst          589                       # number of overall MSHR misses (Count)
system.cpu.icache.overallMshrMisses::total          589                       # number of overall MSHR misses (Count)
system.cpu.icache.demandMshrMissLatency::cpu.inst     46443000                       # number of demand (read+write) MSHR miss ticks (Tick)
system.cpu.icache.demandMshrMissLatency::total     46443000                       # number of demand (read+write) MSHR miss ticks (Tick)
system.cpu.icache.overallMshrMissLatency::cpu.inst     46443000                       # number of overall MSHR miss ticks (Tick)
system.cpu.icache.overallMshrMissLatency::total     46443000                       # number of overall MSHR miss ticks (Tick)
system.cpu.icache.demandMshrMissRate::cpu.inst     0.000018                       # mshr miss ratio for demand accesses (Ratio)
system.cpu.icache.demandMshrMissRate::total     0.000018                       # mshr miss ratio for demand accesses (Ratio)
system.cpu.icache.overallMshrMissRate::cpu.inst     0.000018                       # mshr miss ratio for overall accesses (Ratio)
system.cpu.icache.overallMshrMissRate::total     0.000018                       # mshr miss ratio for overall accesses (Ratio)
system.cpu.icache.demandAvgMshrMissLatency::cpu.inst 78850.594228                       # average overall mshr miss latency ((Cycle/Count))
system.cpu.icache.demandAvgMshrMissLatency::total 78850.594228                       # average overall mshr miss latency ((Cycle/Count))
system.cpu.icache.overallAvgMshrMissLatency::cpu.inst 78850.594228                       # average overall mshr miss latency ((Cycle/Count))
system.cpu.icache.overallAvgMshrMissLatency::total 78850.594228                       # average overall mshr miss latency ((Cycle/Count))
system.cpu.icache.replacements                      1                       # number of replacements (Count)
system.cpu.icache.ReadReq.hits::cpu.inst     32134068                       # number of ReadReq hits (Count)
system.cpu.icache.ReadReq.hits::total        32134068                       # number of ReadReq hits (Count)
system.cpu.icache.ReadReq.misses::cpu.inst          589                       # number of ReadReq misses (Count)
system.cpu.icache.ReadReq.misses::total           589                       # number of ReadReq misses (Count)
system.cpu.icache.ReadReq.missLatency::cpu.inst     47032000                       # number of ReadReq miss ticks (Tick)
system.cpu.icache.ReadReq.missLatency::total     47032000                       # number of ReadReq miss ticks (Tick)
system.cpu.icache.ReadReq.accesses::cpu.inst     32134657                       # number of ReadReq accesses(hits+misses) (Count)
system.cpu.icache.ReadReq.accesses::total     32134657                       # number of ReadReq accesses(hits+misses) (Count)
system.cpu.icache.ReadReq.missRate::cpu.inst     0.000018                       # miss rate for ReadReq accesses (Ratio)
system.cpu.icache.ReadReq.missRate::total     0.000018                       # miss rate for ReadReq accesses (Ratio)
system.cpu.icache.ReadReq.avgMissLatency::cpu.inst 79850.594228                       # average ReadReq miss latency ((Tick/Count))
system.cpu.icache.ReadReq.avgMissLatency::total 79850.594228                       # average ReadReq miss latency ((Tick/Count))
system.cpu.icache.ReadReq.mshrMisses::cpu.inst          589                       # number of ReadReq MSHR misses (Count)
system.cpu.icache.ReadReq.mshrMisses::total          589                       # number of ReadReq MSHR misses (Count)
system.cpu.icache.ReadReq.mshrMissLatency::cpu.inst     46443000                       # number of ReadReq MSHR miss ticks (Tick)
system.cpu.icache.ReadReq.mshrMissLatency::total     46443000                       # number of ReadReq MSHR miss ticks (Tick)
system.cpu.icache.ReadReq.mshrMissRate::cpu.inst     0.000018                       # mshr miss rate for ReadReq accesses (Ratio)
system.cpu.icache.ReadReq.mshrMissRate::total     0.000018                       # mshr miss rate for ReadReq accesses (Ratio)
system.cpu.icache.ReadReq.avgMshrMissLatency::cpu.inst 78850.594228                       # average ReadReq mshr miss latency ((Tick/Count))
system.cpu.icache.ReadReq.avgMshrMissLatency::total 78850.594228                       # average ReadReq mshr miss latency ((Tick/Count))
system.cpu.icache.power_state.pwrStateResidencyTicks::UNDEFINED 513972004000                       # Cumulative time (in ticks) in various power states (Tick)
system.cpu.icache.tags.tagsInUse           490.898471                       # Average ticks per tags in use ((Tick/Count))
system.cpu.icache.tags.totalRefs             32134657                       # Total number of references to valid blocks. (Count)
system.cpu.icache.tags.sampledRefs                589                       # Sample count of references to valid blocks. (Count)
system.cpu.icache.tags.avgRefs           54557.991511                       # Average number of references to valid blocks. ((Count/Count))
system.cpu.icache.tags.warmupTick               87500                       # The tick when the warmup percentage was hit. (Tick)
system.cpu.icache.tags.occupancies::cpu.inst   490.898471                       # Average occupied blocks per tick, per requestor ((Count/Tick))
system.cpu.icache.tags.avgOccs::cpu.inst     0.239697                       # Average percentage of cache occupancy ((Ratio/Tick))
system.cpu.icache.tags.avgOccs::total        0.239697                       # Average percentage of cache occupancy ((Ratio/Tick))
system.cpu.icache.tags.occupanciesTaskId::1024          588                       # Occupied blocks per task id (Count)
system.cpu.icache.tags.ageTaskId_1024::4          588                       # Occupied blocks per task id, per block age (Count)
system.cpu.icache.tags.ratioOccsTaskId::1024     0.287109                       # Ratio of occupied blocks and all blocks, per task id (Ratio)
system.cpu.icache.tags.tagAccesses           64269903                       # Number of tag accesses (Count)
system.cpu.icache.tags.dataAccesses          64269903                       # Number of data accesses (Count)
system.cpu.icache.tags.power_state.pwrStateResidencyTicks::UNDEFINED 513972004000                       # Cumulative time (in ticks) in various power states (Tick)
system.cpu.mmu.dtb.instHits                         0                       # ITB inst hits (Count)
system.cpu.mmu.dtb.instMisses                       0                       # ITB inst misses (Count)
system.cpu.mmu.dtb.readHits                         0                       # DTB read hits (Count)
system.cpu.mmu.dtb.readMisses                       0                       # DTB read misses (Count)
system.cpu.mmu.dtb.writeHits                        0                       # DTB write hits (Count)
system.cpu.mmu.dtb.writeMisses                      0                       # DTB write misses (Count)
system.cpu.mmu.dtb.inserts                          0                       # Number of times an entry is inserted into the TLB (Count)
system.cpu.mmu.dtb.flushTlb                         0                       # Number of times complete TLB was flushed (Count)
system.cpu.mmu.dtb.flushTlbMva                      0                       # Number of times TLB was flushed by MVA (Count)
system.cpu.mmu.dtb.flushTlbMvaAsid                  0                       # Number of times TLB was flushed by MVA & ASID (Count)
system.cpu.mmu.dtb.flushTlbAsid                     0                       # Number of times TLB was flushed by ASID (Count)
system.cpu.mmu.dtb.flushedEntries                   0                       # Number of entries that have been flushed from TLB (Count)
system.cpu.mmu.dtb.alignFaults                      0                       # Number of TLB faults due to alignment restrictions (Count)
system.cpu.mmu.dtb.prefetchFaults                   0                       # Number of TLB faults due to prefetch (Count)
system.cpu.mmu.dtb.domainFaults                     0                       # Number of TLB faults due to domain restrictions (Count)
system.cpu.mmu.dtb.permsFaults                      0                       # Number of TLB faults due to permissions restrictions (Count)
system.cpu.mmu.dtb.readAccesses                     0                       # DTB read accesses (Count)
system.cpu.mmu.dtb.writeAccesses                    0                       # DTB write accesses (Count)
system.cpu.mmu.dtb.instAccesses                     0                       # ITB inst accesses (Count)
system.cpu.mmu.dtb.hits                             0                       # Total TLB (inst and data) hits (Count)
system.cpu.mmu.dtb.misses                           0                       # Total TLB (inst and data) misses (Count)
system.cpu.mmu.dtb.accesses                         0                       # Total TLB (inst and data) accesses (Count)
system.cpu.mmu.dtb_walker.walks                     0                       # Table walker walks requested (Count)
system.cpu.mmu.dtb_walker.requestOrigin_Requested::Data            0                       # Table walker requests started/completed, data/inst (Count)
system.cpu.mmu.dtb_walker.requestOrigin_Requested::Inst            0                       # Table walker requests started/completed, data/inst (Count)
system.cpu.mmu.dtb_walker.requestOrigin_Requested::total            0                       # Table walker requests started/completed, data/inst (Count)
system.cpu.mmu.dtb_walker.requestOrigin_Completed::Data            0                       # Table walker requests started/completed, data/inst (Count)
system.cpu.mmu.dtb_walker.requestOrigin_Completed::Inst            0                       # Table walker requests started/completed, data/inst (Count)
system.cpu.mmu.dtb_walker.requestOrigin_Completed::total            0                       # Table walker requests started/completed, data/inst (Count)
system.cpu.mmu.dtb_walker.requestOrigin::total            0                       # Table walker requests started/completed, data/inst (Count)
system.cpu.mmu.dtb_walker.power_state.pwrStateResidencyTicks::UNDEFINED 513972004000                       # Cumulative time (in ticks) in various power states (Tick)
system.cpu.mmu.itb.instHits                         0                       # ITB inst hits (Count)
system.cpu.mmu.itb.instMisses                       0                       # ITB inst misses (Count)
system.cpu.mmu.itb.readHits                         0                       # DTB read hits (Count)
system.cpu.mmu.itb.readMisses                       0                       # DTB read misses (Count)
system.cpu.mmu.itb.writeHits                        0                       # DTB write hits (Count)
system.cpu.mmu.itb.writeMisses                      0                       # DTB write misses (Count)
system.cpu.mmu.itb.inserts                          0                       # Number of times an entry is inserted into the TLB (Count)
system.cpu.mmu.itb.flushTlb                         0                       # Number of times complete TLB was flushed (Count)
system.cpu.mmu.itb.flushTlbMva                      0                       # Number of times TLB was flushed by MVA (Count)
system.cpu.mmu.itb.flushTlbMvaAsid                  0                       # Number of times TLB was flushed by MVA & ASID (Count)
system.cpu.mmu.itb.flushTlbAsid                     0                       # Number of times TLB was flushed by ASID (Count)
system.cpu.mmu.itb.flushedEntries                   0                       # Number of entries that have been flushed from TLB (Count)
system.cpu.mmu.itb.alignFaults                      0                       # Number of TLB faults due to alignment restrictions (Count)
system.cpu.mmu.itb.prefetchFaults                   0                       # Number of TLB faults due to prefetch (Count)
system.cpu.mmu.itb.domainFaults                     0                       # Number of TLB faults due to domain restrictions (Count)
system.cpu.mmu.itb.permsFaults                      0                       # Number of TLB faults due to permissions restrictions (Count)
system.cpu.mmu.itb.readAccesses                     0                       # DTB read accesses (Count)
system.cpu.mmu.itb.writeAccesses                    0                       # DTB write accesses (Count)
system.cpu.mmu.itb.instAccesses                     0                       # ITB inst accesses (Count)
system.cpu.mmu.itb.hits                             0                       # Total TLB (inst and data) hits (Count)
system.cpu.mmu.itb.misses                           0                       # Total TLB (inst and data) misses (Count)
system.cpu.mmu.itb.accesses                         0                       # Total TLB (inst and data) accesses (Count)
system.cpu.mmu.itb_walker.walks                     0                       # Table walker walks requested (Count)
system.cpu.mmu.itb_walker.requestOrigin_Requested::Data            0                       # Table walker requests started/completed, data/inst (Count)
system.cpu.mmu.itb_walker.requestOrigin_Requested::Inst            0                       # Table walker requests started/completed, data/inst (Count)
system.cpu.mmu.itb_walker.requestOrigin_Requested::total            0                       # Table walker requests started/completed, data/inst (Count)
system.cpu.mmu.itb_walker.requestOrigin_Completed::Data            0                       # Table walker requests started/completed, data/inst (Count)
system.cpu.mmu.itb_walker.requestOrigin_Completed::Inst            0                       # Table walker requests started/completed, data/inst (Count)
system.cpu.mmu.itb_walker.requestOrigin_Completed::total            0                       # Table walker requests started/completed, data/inst (Count)
system.cpu.mmu.itb_walker.requestOrigin::total            0                       # Table walker requests started/completed, data/inst (Count)
system.cpu.mmu.itb_walker.power_state.pwrStateResidencyTicks::UNDEFINED 513972004000                       # Cumulative time (in ticks) in various power states (Tick)
system.cpu.mmu.stage2_dtb.instHits                  0                       # ITB inst hits (Count)
system.cpu.mmu.stage2_dtb.instMisses                0                       # ITB inst misses (Count)
system.cpu.mmu.stage2_dtb.readHits                  0                       # DTB read hits (Count)
system.cpu.mmu.stage2_dtb.readMisses                0                       # DTB read misses (Count)
system.cpu.mmu.stage2_dtb.writeHits                 0                       # DTB write hits (Count)
system.cpu.mmu.stage2_dtb.writeMisses               0                       # DTB write misses (Count)
system.cpu.mmu.stage2_dtb.inserts                   0                       # Number of times an entry is inserted into the TLB (Count)
system.cpu.mmu.stage2_dtb.flushTlb                  0                       # Number of times complete TLB was flushed (Count)
system.cpu.mmu.stage2_dtb.flushTlbMva               0                       # Number of times TLB was flushed by MVA (Count)
system.cpu.mmu.stage2_dtb.flushTlbMvaAsid            0                       # Number of times TLB was flushed by MVA & ASID (Count)
system.cpu.mmu.stage2_dtb.flushTlbAsid              0                       # Number of times TLB was flushed by ASID (Count)
system.cpu.mmu.stage2_dtb.flushedEntries            0                       # Number of entries that have been flushed from TLB (Count)
system.cpu.mmu.stage2_dtb.alignFaults               0                       # Number of TLB faults due to alignment restrictions (Count)
system.cpu.mmu.stage2_dtb.prefetchFaults            0                       # Number of TLB faults due to prefetch (Count)
system.cpu.mmu.stage2_dtb.domainFaults              0                       # Number of TLB faults due to domain restrictions (Count)
system.cpu.mmu.stage2_dtb.permsFaults               0                       # Number of TLB faults due to permissions restrictions (Count)
system.cpu.mmu.stage2_dtb.readAccesses              0                       # DTB read accesses (Count)
system.cpu.mmu.stage2_dtb.writeAccesses             0                       # DTB write accesses (Count)
system.cpu.mmu.stage2_dtb.instAccesses              0                       # ITB inst accesses (Count)
system.cpu.mmu.stage2_dtb.hits                      0                       # Total TLB (inst and data) hits (Count)
system.cpu.mmu.stage2_dtb.misses                    0                       # Total TLB (inst and data) misses (Count)
system.cpu.mmu.stage2_dtb.accesses                  0                       # Total TLB (inst and data) accesses (Count)
system.cpu.mmu.stage2_dtb_walker.walks              0                       # Table walker walks requested (Count)
system.cpu.mmu.stage2_dtb_walker.requestOrigin_Requested::Data            0                       # Table walker requests started/completed, data/inst (Count)
system.cpu.mmu.stage2_dtb_walker.requestOrigin_Requested::Inst            0                       # Table walker requests started/completed, data/inst (Count)
system.cpu.mmu.stage2_dtb_walker.requestOrigin_Requested::total            0                       # Table walker requests started/completed, data/inst (Count)
system.cpu.mmu.stage2_dtb_walker.requestOrigin_Completed::Data            0                       # Table walker requests started/completed, data/inst (Count)
system.cpu.mmu.stage2_dtb_walker.requestOrigin_Completed::Inst            0                       # Table walker requests started/completed, data/inst (Count)
system.cpu.mmu.stage2_dtb_walker.requestOrigin_Completed::total            0                       # Table walker requests started/completed, data/inst (Count)
system.cpu.mmu.stage2_dtb_walker.requestOrigin::total            0                       # Table walker requests started/completed, data/inst (Count)
system.cpu.mmu.stage2_dtb_walker.power_state.pwrStateResidencyTicks::UNDEFINED 513972004000                       # Cumulative time (in ticks) in various power states (Tick)
system.cpu.mmu.stage2_itb.instHits                  0                       # ITB inst hits (Count)
system.cpu.mmu.stage2_itb.instMisses                0                       # ITB inst misses (Count)
system.cpu.mmu.stage2_itb.readHits                  0                       # DTB read hits (Count)
system.cpu.mmu.stage2_itb.readMisses                0                       # DTB read misses (Count)
system.cpu.mmu.stage2_itb.writeHits                 0                       # DTB write hits (Count)
system.cpu.mmu.stage2_itb.writeMisses               0                       # DTB write misses (Count)
system.cpu.mmu.stage2_itb.inserts                   0                       # Number of times an entry is inserted into the TLB (Count)
system.cpu.mmu.stage2_itb.flushTlb                  0                       # Number of times complete TLB was flushed (Count)
system.cpu.mmu.stage2_itb.flushTlbMva               0                       # Number of times TLB was flushed by MVA (Count)
system.cpu.mmu.stage2_itb.flushTlbMvaAsid            0                       # Number of times TLB was flushed by MVA & ASID (Count)
system.cpu.mmu.stage2_itb.flushTlbAsid              0                       # Number of times TLB was flushed by ASID (Count)
system.cpu.mmu.stage2_itb.flushedEntries            0                       # Number of entries that have been flushed from TLB (Count)
system.cpu.mmu.stage2_itb.alignFaults               0                       # Number of TLB faults due to alignment restrictions (Count)
system.cpu.mmu.stage2_itb.prefetchFaults            0                       # Number of TLB faults due to prefetch (Count)
system.cpu.mmu.stage2_itb.domainFaults              0                       # Number of TLB faults due to domain restrictions (Count)
system.cpu.mmu.stage2_itb.permsFaults               0                       # Number of TLB faults due to permissions restrictions (Count)
system.cpu.mmu.stage2_itb.readAccesses              0                       # DTB read accesses (Count)
system.cpu.mmu.stage2_itb.writeAccesses             0                       # DTB write accesses (Count)
system.cpu.mmu.stage2_itb.instAccesses              0                       # ITB inst accesses (Count)
system.cpu.mmu.stage2_itb.hits                      0                       # Total TLB (inst and data) hits (Count)
system.cpu.mmu.stage2_itb.misses                    0                       # Total TLB (inst and data) misses (Count)
system.cpu.mmu.stage2_itb.accesses                  0                       # Total TLB (inst and data) accesses (Count)
system.cpu.mmu.stage2_itb_walker.walks              0                       # Table walker walks requested (Count)
system.cpu.mmu.stage2_itb_walker.requestOrigin_Requested::Data            0                       # Table walker requests started/completed, data/inst (Count)
system.cpu.mmu.stage2_itb_walker.requestOrigin_Requested::Inst            0                       # Table walker requests started/completed, data/inst (Count)
system.cpu.mmu.stage2_itb_walker.requestOrigin_Requested::total            0                       # Table walker requests started/completed, data/inst (Count)
system.cpu.mmu.stage2_itb_walker.requestOrigin_Completed::Data            0                       # Table walker requests started/completed, data/inst (Count)
system.cpu.mmu.stage2_itb_walker.requestOrigin_Completed::Inst            0                       # Table walker requests started/completed, data/inst (Count)
system.cpu.mmu.stage2_itb_walker.requestOrigin_Completed::total            0                       # Table walker requests started/completed, data/inst (Count)
system.cpu.mmu.stage2_itb_walker.requestOrigin::total            0                       # Table walker requests started/completed, data/inst (Count)
system.cpu.mmu.stage2_itb_walker.power_state.pwrStateResidencyTicks::UNDEFINED 513972004000                       # Cumulative time (in ticks) in various power states (Tick)
system.cpu.power_state.pwrStateResidencyTicks::ON 513972004000                       # Cumulative time (in ticks) in various power states (Tick)
system.cpu.thread_0.numInsts                100000000                       # Number of Instructions committed (Count)
system.cpu.thread_0.numOps                  184220346                       # Number of Ops committed (Count)
system.cpu.thread_0.numMemRefs                      0                       # Number of Memory References (Count)
system.cpu.workload.numSyscalls                    19                       # Number of system calls (Count)
system.cpu_clk_domain.clock                       500                       # Clock period in ticks (Tick)
system.cpu_voltage_domain.voltage                   1                       # Voltage in Volts (Volt)
system.l2.demandHits::cpu.inst                     19                       # number of demand (read+write) hits (Count)
system.l2.demandHits::cpu.data                   1307                       # number of demand (read+write) hits (Count)
system.l2.demandHits::total                      1326                       # number of demand (read+write) hits (Count)
system.l2.overallHits::cpu.inst                    19                       # number of overall hits (Count)
system.l2.overallHits::cpu.data                  1307                       # number of overall hits (Count)
system.l2.overallHits::total                     1326                       # number of overall hits (Count)
system.l2.demandMisses::cpu.inst                  570                       # number of demand (read+write) misses (Count)
system.l2.demandMisses::cpu.data              5263265                       # number of demand (read+write) misses (Count)
system.l2.demandMisses::total                 5263835                       # number of demand (read+write) misses (Count)
system.l2.overallMisses::cpu.inst                 570                       # number of overall misses (Count)
system.l2.overallMisses::cpu.data             5263265                       # number of overall misses (Count)
system.l2.overallMisses::total                5263835                       # number of overall misses (Count)
system.l2.demandMissLatency::cpu.inst        45340000                       # number of demand (read+write) miss ticks (Tick)
system.l2.demandMissLatency::cpu.data    424164053000                       # number of demand (read+write) miss ticks (Tick)
system.l2.demandMissLatency::total       424209393000                       # number of demand (read+write) miss ticks (Tick)
system.l2.overallMissLatency::cpu.inst       45340000                       # number of overall miss ticks (Tick)
system.l2.overallMissLatency::cpu.data   424164053000                       # number of overall miss ticks (Tick)
system.l2.overallMissLatency::total      424209393000                       # number of overall miss ticks (Tick)
system.l2.demandAccesses::cpu.inst                589                       # number of demand (read+write) accesses (Count)
system.l2.demandAccesses::cpu.data            5264572                       # number of demand (read+write) accesses (Count)
system.l2.demandAccesses::total               5265161                       # number of demand (read+write) accesses (Count)
system.l2.overallAccesses::cpu.inst               589                       # number of overall (read+write) accesses (Count)
system.l2.overallAccesses::cpu.data           5264572                       # number of overall (read+write) accesses (Count)
system.l2.overallAccesses::total              5265161                       # number of overall (read+write) accesses (Count)
system.l2.demandMissRate::cpu.inst           0.967742                       # miss rate for demand accesses (Ratio)
system.l2.demandMissRate::cpu.data           0.999752                       # miss rate for demand accesses (Ratio)
system.l2.demandMissRate::total              0.999748                       # miss rate for demand accesses (Ratio)
system.l2.overallMissRate::cpu.inst          0.967742                       # miss rate for overall accesses (Ratio)
system.l2.overallMissRate::cpu.data          0.999752                       # miss rate for overall accesses (Ratio)
system.l2.overallMissRate::total             0.999748                       # miss rate for overall accesses (Ratio)
system.l2.demandAvgMissLatency::cpu.inst 79543.859649                       # average overall miss latency ((Cycle/Count))
system.l2.demandAvgMissLatency::cpu.data 80589.530073                       # average overall miss latency ((Cycle/Count))
system.l2.demandAvgMissLatency::total    80589.416842                       # average overall miss latency ((Cycle/Count))
system.l2.overallAvgMissLatency::cpu.inst 79543.859649                       # average overall miss latency ((Cycle/Count))
system.l2.overallAvgMissLatency::cpu.data 80589.530073                       # average overall miss latency ((Cycle/Count))
system.l2.overallAvgMissLatency::total   80589.416842                       # average overall miss latency ((Cycle/Count))
system.l2.blockedCycles::no_mshrs                   0                       # number of cycles access was blocked (Cycle)
system.l2.blockedCycles::no_targets                 0                       # number of cycles access was blocked (Cycle)
system.l2.blockedCauses::no_mshrs                   0                       # number of times access was blocked (Count)
system.l2.blockedCauses::no_targets                 0                       # number of times access was blocked (Count)
system.l2.avgBlocked::no_mshrs                    nan                       # average number of cycles each access was blocked ((Cycle/Count))
system.l2.avgBlocked::no_targets                  nan                       # average number of cycles each access was blocked ((Cycle/Count))
system.l2.writebacks::writebacks              5246637                       # number of writebacks (Count)
system.l2.writebacks::total                   5246637                       # number of writebacks (Count)
system.l2.demandMshrHits::cpu.inst                  2                       # number of demand (read+write) MSHR hits (Count)
system.l2.demandMshrHits::cpu.data                  3                       # number of demand (read+write) MSHR hits (Count)
system.l2.demandMshrHits::total                     5                       # number of demand (read+write) MSHR hits (Count)
system.l2.overallMshrHits::cpu.inst                 2                       # number of overall MSHR hits (Count)
system.l2.overallMshrHits::cpu.data                 3                       # number of overall MSHR hits (Count)
system.l2.overallMshrHits::total                    5                       # number of overall MSHR hits (Count)
system.l2.demandMshrMisses::cpu.inst              568                       # number of demand (read+write) MSHR misses (Count)
system.l2.demandMshrMisses::cpu.data          5263262                       # number of demand (read+write) MSHR misses (Count)
system.l2.demandMshrMisses::total             5263830                       # number of demand (read+write) MSHR misses (Count)
system.l2.overallMshrMisses::cpu.inst             568                       # number of overall MSHR misses (Count)
system.l2.overallMshrMisses::cpu.data         5263262                       # number of overall MSHR misses (Count)
system.l2.overallMshrMisses::total            5263830                       # number of overall MSHR misses (Count)
system.l2.demandMshrMissLatency::cpu.inst     39481000                       # number of demand (read+write) MSHR miss ticks (Tick)
system.l2.demandMshrMissLatency::cpu.data 371531237500                       # number of demand (read+write) MSHR miss ticks (Tick)
system.l2.demandMshrMissLatency::total   371570718500                       # number of demand (read+write) MSHR miss ticks (Tick)
system.l2.overallMshrMissLatency::cpu.inst     39481000                       # number of overall MSHR miss ticks (Tick)
system.l2.overallMshrMissLatency::cpu.data 371531237500                       # number of overall MSHR miss ticks (Tick)
system.l2.overallMshrMissLatency::total  371570718500                       # number of overall MSHR miss ticks (Tick)
system.l2.demandMshrMissRate::cpu.inst       0.964346                       # mshr miss ratio for demand accesses (Ratio)
system.l2.demandMshrMissRate::cpu.data       0.999751                       # mshr miss ratio for demand accesses (Ratio)
system.l2.demandMshrMissRate::total          0.999747                       # mshr miss ratio for demand accesses (Ratio)
system.l2.overallMshrMissRate::cpu.inst      0.964346                       # mshr miss ratio for overall accesses (Ratio)
system.l2.overallMshrMissRate::cpu.data      0.999751                       # mshr miss ratio for overall accesses (Ratio)
system.l2.overallMshrMissRate::total         0.999747                       # mshr miss ratio for overall accesses (Ratio)
system.l2.demandAvgMshrMissLatency::cpu.inst 69508.802817                       # average overall mshr miss latency ((Cycle/Count))
system.l2.demandAvgMshrMissLatency::cpu.data 70589.538864                       # average overall mshr miss latency ((Cycle/Count))
system.l2.demandAvgMshrMissLatency::total 70589.422246                       # average overall mshr miss latency ((Cycle/Count))
system.l2.overallAvgMshrMissLatency::cpu.inst 69508.802817                       # average overall mshr miss latency ((Cycle/Count))
system.l2.overallAvgMshrMissLatency::cpu.data 70589.538864                       # average overall mshr miss latency ((Cycle/Count))
system.l2.overallAvgMshrMissLatency::total 70589.422246                       # average overall mshr miss latency ((Cycle/Count))
system.l2.replacements                        5247458                       # number of replacements (Count)
system.l2.CleanEvict.mshrMisses::writebacks            3                       # number of CleanEvict MSHR misses (Count)
system.l2.CleanEvict.mshrMisses::total              3                       # number of CleanEvict MSHR misses (Count)
system.l2.CleanEvict.mshrMissRate::writebacks          inf                       # mshr miss rate for CleanEvict accesses (Ratio)
system.l2.CleanEvict.mshrMissRate::total          inf                       # mshr miss rate for CleanEvict accesses (Ratio)
system.l2.ReadCleanReq.hits::cpu.inst              19                       # number of ReadCleanReq hits (Count)
system.l2.ReadCleanReq.hits::total                 19                       # number of ReadCleanReq hits (Count)
system.l2.ReadCleanReq.misses::cpu.inst           570                       # number of ReadCleanReq misses (Count)
system.l2.ReadCleanReq.misses::total              570                       # number of ReadCleanReq misses (Count)
system.l2.ReadCleanReq.missLatency::cpu.inst     45340000                       # number of ReadCleanReq miss ticks (Tick)
system.l2.ReadCleanReq.missLatency::total     45340000                       # number of ReadCleanReq miss ticks (Tick)
system.l2.ReadCleanReq.accesses::cpu.inst          589                       # number of ReadCleanReq accesses(hits+misses) (Count)
system.l2.ReadCleanReq.accesses::total            589                       # number of ReadCleanReq accesses(hits+misses) (Count)
system.l2.ReadCleanReq.missRate::cpu.inst     0.967742                       # miss rate for ReadCleanReq accesses (Ratio)
system.l2.ReadCleanReq.missRate::total       0.967742                       # miss rate for ReadCleanReq accesses (Ratio)
system.l2.ReadCleanReq.avgMissLatency::cpu.inst 79543.859649                       # average ReadCleanReq miss latency ((Tick/Count))
system.l2.ReadCleanReq.avgMissLatency::total 79543.859649                       # average ReadCleanReq miss latency ((Tick/Count))
system.l2.ReadCleanReq.mshrHits::cpu.inst            2                       # number of ReadCleanReq MSHR hits (Count)
system.l2.ReadCleanReq.mshrHits::total              2                       # number of ReadCleanReq MSHR hits (Count)
system.l2.ReadCleanReq.mshrMisses::cpu.inst          568                       # number of ReadCleanReq MSHR misses (Count)
system.l2.ReadCleanReq.mshrMisses::total          568                       # number of ReadCleanReq MSHR misses (Count)
system.l2.ReadCleanReq.mshrMissLatency::cpu.inst     39481000                       # number of ReadCleanReq MSHR miss ticks (Tick)
system.l2.ReadCleanReq.mshrMissLatency::total     39481000                       # number of ReadCleanReq MSHR miss ticks (Tick)
system.l2.ReadCleanReq.mshrMissRate::cpu.inst     0.964346                       # mshr miss rate for ReadCleanReq accesses (Ratio)
system.l2.ReadCleanReq.mshrMissRate::total     0.964346                       # mshr miss rate for ReadCleanReq accesses (Ratio)
system.l2.ReadCleanReq.avgMshrMissLatency::cpu.inst 69508.802817                       # average ReadCleanReq mshr miss latency ((Tick/Count))
system.l2.ReadCleanReq.avgMshrMissLatency::total 69508.802817                       # average ReadCleanReq mshr miss latency ((Tick/Count))
system.l2.ReadExReq.hits::cpu.data                561                       # number of ReadExReq hits (Count)
system.l2.ReadExReq.hits::total                   561                       # number of ReadExReq hits (Count)
system.l2.ReadExReq.misses::cpu.data          5262990                       # number of ReadExReq misses (Count)
system.l2.ReadExReq.misses::total             5262990                       # number of ReadExReq misses (Count)
system.l2.ReadExReq.missLatency::cpu.data 424140449500                       # number of ReadExReq miss ticks (Tick)
system.l2.ReadExReq.missLatency::total   424140449500                       # number of ReadExReq miss ticks (Tick)
system.l2.ReadExReq.accesses::cpu.data        5263551                       # number of ReadExReq accesses(hits+misses) (Count)
system.l2.ReadExReq.accesses::total           5263551                       # number of ReadExReq accesses(hits+misses) (Count)
system.l2.ReadExReq.missRate::cpu.data       0.999893                       # miss rate for ReadExReq accesses (Ratio)
system.l2.ReadExReq.missRate::total          0.999893                       # miss rate for ReadExReq accesses (Ratio)
system.l2.ReadExReq.avgMissLatency::cpu.data 80589.256202                       # average ReadExReq miss latency ((Tick/Count))
system.l2.ReadExReq.avgMissLatency::total 80589.256202                       # average ReadExReq miss latency ((Tick/Count))
system.l2.ReadExReq.mshrMisses::cpu.data      5262990                       # number of ReadExReq MSHR misses (Count)
system.l2.ReadExReq.mshrMisses::total         5262990                       # number of ReadExReq MSHR misses (Count)
system.l2.ReadExReq.mshrMissLatency::cpu.data 371510549500                       # number of ReadExReq MSHR miss ticks (Tick)
system.l2.ReadExReq.mshrMissLatency::total 371510549500                       # number of ReadExReq MSHR miss ticks (Tick)
system.l2.ReadExReq.mshrMissRate::cpu.data     0.999893                       # mshr miss rate for ReadExReq accesses (Ratio)
system.l2.ReadExReq.mshrMissRate::total      0.999893                       # mshr miss rate for ReadExReq accesses (Ratio)
system.l2.ReadExReq.avgMshrMissLatency::cpu.data 70589.256202                       # average ReadExReq mshr miss latency ((Tick/Count))
system.l2.ReadExReq.avgMshrMissLatency::total 70589.256202                       # average ReadExReq mshr miss latency ((Tick/Count))
system.l2.ReadSharedReq.hits::cpu.data            746                       # number of ReadSharedReq hits (Count)
system.l2.ReadSharedReq.hits::total               746                       # number of ReadSharedReq hits (Count)
system.l2.ReadSharedReq.misses::cpu.data          275                       # number of ReadSharedReq misses (Count)
system.l2.ReadSharedReq.misses::total             275                       # number of ReadSharedReq misses (Count)
system.l2.ReadSharedReq.missLatency::cpu.data     23603500                       # number of ReadSharedReq miss ticks (Tick)
system.l2.ReadSharedReq.missLatency::total     23603500                       # number of ReadSharedReq miss ticks (Tick)
system.l2.ReadSharedReq.accesses::cpu.data         1021                       # number of ReadSharedReq accesses(hits+misses) (Count)
system.l2.ReadSharedReq.accesses::total          1021                       # number of ReadSharedReq accesses(hits+misses) (Count)
system.l2.ReadSharedReq.missRate::cpu.data     0.269344                       # miss rate for ReadSharedReq accesses (Ratio)
system.l2.ReadSharedReq.missRate::total      0.269344                       # miss rate for ReadSharedReq accesses (Ratio)
system.l2.ReadSharedReq.avgMissLatency::cpu.data 85830.909091                       # average ReadSharedReq miss latency ((Tick/Count))
system.l2.ReadSharedReq.avgMissLatency::total 85830.909091                       # average ReadSharedReq miss latency ((Tick/Count))
system.l2.ReadSharedReq.mshrHits::cpu.data            3                       # number of ReadSharedReq MSHR hits (Count)
system.l2.ReadSharedReq.mshrHits::total             3                       # number of ReadSharedReq MSHR hits (Count)
system.l2.ReadSharedReq.mshrMisses::cpu.data          272                       # number of ReadSharedReq MSHR misses (Count)
system.l2.ReadSharedReq.mshrMisses::total          272                       # number of ReadSharedReq MSHR misses (Count)
system.l2.ReadSharedReq.mshrMissLatency::cpu.data     20688000                       # number of ReadSharedReq MSHR miss ticks (Tick)
system.l2.ReadSharedReq.mshrMissLatency::total     20688000                       # number of ReadSharedReq MSHR miss ticks (Tick)
system.l2.ReadSharedReq.mshrMissRate::cpu.data     0.266405                       # mshr miss rate for ReadSharedReq accesses (Ratio)
system.l2.ReadSharedReq.mshrMissRate::total     0.266405                       # mshr miss rate for ReadSharedReq accesses (Ratio)
system.l2.ReadSharedReq.avgMshrMissLatency::cpu.data 76058.823529                       # average ReadSharedReq mshr miss latency ((Tick/Count))
system.l2.ReadSharedReq.avgMshrMissLatency::total 76058.823529                       # average ReadSharedReq mshr miss latency ((Tick/Count))
system.l2.WritebackClean.hits::writebacks            1                       # number of WritebackClean hits (Count)
system.l2.WritebackClean.hits::total                1                       # number of WritebackClean hits (Count)
system.l2.WritebackClean.accesses::writebacks            1                       # number of WritebackClean accesses(hits+misses) (Count)
system.l2.WritebackClean.accesses::total            1                       # number of WritebackClean accesses(hits+misses) (Count)
system.l2.WritebackDirty.hits::writebacks      5261696                       # number of WritebackDirty hits (Count)
system.l2.WritebackDirty.hits::total          5261696                       # number of WritebackDirty hits (Count)
system.l2.WritebackDirty.accesses::writebacks      5261696                       # number of WritebackDirty accesses(hits+misses) (Count)
system.l2.WritebackDirty.accesses::total      5261696                       # number of WritebackDirty accesses(hits+misses) (Count)
system.l2.power_state.pwrStateResidencyTicks::UNDEFINED 513972004000                       # Cumulative time (in ticks) in various power states (Tick)
system.l2.tags.tagsInUse                 16281.855820                       # Average ticks per tags in use ((Tick/Count))
system.l2.tags.totalRefs                     10527432                       # Total number of references to valid blocks. (Count)
system.l2.tags.sampledRefs                    5263842                       # Sample count of references to valid blocks. (Count)
system.l2.tags.avgRefs                       1.999952                       # Average number of references to valid blocks. ((Count/Count))
system.l2.tags.warmupTick                       77000                       # The tick when the warmup percentage was hit. (Tick)
system.l2.tags.occupancies::writebacks       0.017937                       # Average occupied blocks per tick, per requestor ((Count/Tick))
system.l2.tags.occupancies::cpu.inst         2.814511                       # Average occupied blocks per tick, per requestor ((Count/Tick))
system.l2.tags.occupancies::cpu.data     16279.023372                       # Average occupied blocks per tick, per requestor ((Count/Tick))
system.l2.tags.avgOccs::writebacks           0.000001                       # Average percentage of cache occupancy ((Ratio/Tick))
system.l2.tags.avgOccs::cpu.inst             0.000172                       # Average percentage of cache occupancy ((Ratio/Tick))
system.l2.tags.avgOccs::cpu.data             0.993593                       # Average percentage of cache occupancy ((Ratio/Tick))
system.l2.tags.avgOccs::total                0.993766                       # Average percentage of cache occupancy ((Ratio/Tick))
system.l2.tags.occupanciesTaskId::1024          16384                       # Occupied blocks per task id (Count)
system.l2.tags.ageTaskId_1024::0                  101                       # Occupied blocks per task id, per block age (Count)
system.l2.tags.ageTaskId_1024::1                  928                       # Occupied blocks per task id, per block age (Count)
system.l2.tags.ageTaskId_1024::2                 9272                       # Occupied blocks per task id, per block age (Count)
system.l2.tags.ageTaskId_1024::3                 6083                       # Occupied blocks per task id, per block age (Count)
system.l2.tags.ratioOccsTaskId::1024                1                       # Ratio of occupied blocks and all blocks, per task id (Ratio)
system.l2.tags.tagAccesses                   26318722                       # Number of tag accesses (Count)
system.l2.tags.dataAccesses                  26318722                       # Number of data accesses (Count)
system.l2.tags.power_state.pwrStateResidencyTicks::UNDEFINED 513972004000                       # Cumulative time (in ticks) in various power states (Tick)
system.mem_ctrls.avgPriority_writebacks::samples   5246637.00                       # Average QoS priority value for accepted requests (Count)
[...]
system.mem_ctrls.dram.perBankWrBursts::8       327892                       # Per bank write bursts (Count)
system.mem_ctrls.dram.perBankWrBursts::9       327808                       # Per bank write bursts (Count)
system.mem_ctrls.dram.perBankWrBursts::10       327808                       # Per bank write bursts (Count)
system.mem_ctrls.dram.perBankWrBursts::11       327808                       # Per bank write bursts (Count)
system.mem_ctrls.dram.perBankWrBursts::12       327871                       # Per bank write bursts (Count)
system.mem_ctrls.dram.perBankWrBursts::13       327945                       # Per bank write bursts (Count)
system.mem_ctrls.dram.perBankWrBursts::14       327926                       # Per bank write bursts (Count)
system.mem_ctrls.dram.perBankWrBursts::15       327932                       # Per bank write bursts (Count)
system.mem_ctrls.dram.totQLat             58299373500                       # Total ticks spent queuing (Tick)
system.mem_ctrls.dram.totBusLat           26319150000                       # Total ticks spent in databus transfers (Tick)
system.mem_ctrls.dram.totMemAccLat       156996186000                       # Total ticks spent from burst creation until serviced by the DRAM (Tick)
system.mem_ctrls.dram.avgQLat                11075.47                       # Average queueing delay per DRAM burst ((Tick/Count))
system.mem_ctrls.dram.avgBusLat               5000.00                       # Average bus latency per DRAM burst ((Tick/Count))
system.mem_ctrls.dram.avgMemAccLat           29825.47                       # Average memory access latency per DRAM burst ((Tick/Count))
system.mem_ctrls.dram.readRowHits             4834553                       # Number of row buffer hits during reads (Count)
system.mem_ctrls.dram.writeRowHits            4873736                       # Number of row buffer hits during writes (Count)
system.mem_ctrls.dram.readRowHitRate            91.84                       # Row buffer hit rate for reads (Ratio)
system.mem_ctrls.dram.writeRowHitRate           92.89                       # Row buffer hit rate for writes (Ratio)
system.mem_ctrls.dram.bytesPerActivate::samples       802146                       # Bytes accessed per row activation (Byte)
system.mem_ctrls.dram.bytesPerActivate::mean   838.584258                       # Bytes accessed per row activation (Byte)
system.mem_ctrls.dram.bytesPerActivate::gmean   728.441308                       # Bytes accessed per row activation (Byte)
system.mem_ctrls.dram.bytesPerActivate::stdev   301.633602                       # Bytes accessed per row activation (Byte)
system.mem_ctrls.dram.bytesPerActivate::0-127        25421      3.17%      3.17% # Bytes accessed per row activation (Byte)
system.mem_ctrls.dram.bytesPerActivate::128-255        35988      4.49%      7.66% # Bytes accessed per row activation (Byte)
system.mem_ctrls.dram.bytesPerActivate::256-383        29842      3.72%     11.38% # Bytes accessed per row activation (Byte)
system.mem_ctrls.dram.bytesPerActivate::384-511        42557      5.31%     16.68% # Bytes accessed per row activation (Byte)
system.mem_ctrls.dram.bytesPerActivate::512-639        48003      5.98%     22.67% # Bytes accessed per row activation (Byte)
system.mem_ctrls.dram.bytesPerActivate::640-767        33402      4.16%     26.83% # Bytes accessed per row activation (Byte)
system.mem_ctrls.dram.bytesPerActivate::768-895        24574      3.06%     29.89% # Bytes accessed per row activation (Byte)
system.mem_ctrls.dram.bytesPerActivate::896-1023        39599      4.94%     34.83% # Bytes accessed per row activation (Byte)
system.mem_ctrls.dram.bytesPerActivate::1024-1151       522760     65.17%    100.00% # Bytes accessed per row activation (Byte)
system.mem_ctrls.dram.bytesPerActivate::total       802146                       # Bytes accessed per row activation (Byte)
system.mem_ctrls.dram.bytesRead             336885120                       # Total number of bytes read from DRAM (Byte)
system.mem_ctrls.dram.bytesWritten          335782784                       # Total number of bytes written to DRAM (Byte)
system.mem_ctrls.dram.avgRdBW              655.454222                       # Average DRAM read bandwidth in MiBytes/s ((Byte/Second))
system.mem_ctrls.dram.avgWrBW              653.309483                       # Average DRAM write bandwidth in MiBytes/s ((Byte/Second))
system.mem_ctrls.dram.peakBW                 12800.00                       # Theoretical peak bandwidth in MiByte/s ((Byte/Second))
system.mem_ctrls.dram.busUtil                   10.22                       # Data bus utilization in percentage (Ratio)
system.mem_ctrls.dram.busUtilRead                5.12                       # Data bus utilization in percentage for reads (Ratio)
system.mem_ctrls.dram.busUtilWrite               5.10                       # Data bus utilization in percentage for writes (Ratio)
system.mem_ctrls.dram.pageHitRate               92.37                       # Row buffer hit rate, read and write combined (Ratio)
system.mem_ctrls.dram.power_state.pwrStateResidencyTicks::UNDEFINED 513972004000                       # Cumulative time (in ticks) in various power states (Tick)
system.mem_ctrls.dram.rank0.actEnergy      2863154280                       # Energy for activate commands per rank (pJ) (Joule)
system.mem_ctrls.dram.rank0.preEnergy      1521798795                       # Energy for precharge commands per rank (pJ) (Joule)
system.mem_ctrls.dram.rank0.readEnergy    18794829060                       # Energy for read commands per rank (pJ) (Joule)
system.mem_ctrls.dram.rank0.writeEnergy   13695275520                       # Energy for write commands per rank (pJ) (Joule)
system.mem_ctrls.dram.rank0.refreshEnergy 40572386400.000008                       # Energy for refresh commands per rank (pJ) (Joule)
system.mem_ctrls.dram.rank0.actBackEnergy 123005468760                       # Energy for active background per rank (pJ) (Joule)
system.mem_ctrls.dram.rank0.preBackEnergy  93781697280                       # Energy for precharge background per rank (pJ) (Joule)
system.mem_ctrls.dram.rank0.actPowerDownEnergy            0                       # Energy for active power-down per rank (pJ) (Joule)
system.mem_ctrls.dram.rank0.prePowerDownEnergy            0                       # Energy for precharge power-down per rank (pJ) (Joule)
system.mem_ctrls.dram.rank0.selfRefreshEnergy            0                       # Energy for self refresh per rank (pJ) (Joule)
system.mem_ctrls.dram.rank0.totalEnergy  294234610095                       # Total energy per rank (pJ) (Joule)
system.mem_ctrls.dram.rank0.averagePower   572.472056                       # Core power per rank (mW) (Watt)
system.mem_ctrls.dram.rank0.totalIdleTime            0                       # Total Idle time Per DRAM Rank (Tick)
system.mem_ctrls.dram.rank0.pwrStateTime::IDLE 240003613000                       # Time in different power states (Tick)
system.mem_ctrls.dram.rank0.pwrStateTime::REF  17162600000                       # Time in different power states (Tick)
system.mem_ctrls.dram.rank0.pwrStateTime::SREF            0                       # Time in different power states (Tick)
system.mem_ctrls.dram.rank0.pwrStateTime::PRE_PDN            0                       # Time in different power states (Tick)
system.mem_ctrls.dram.rank0.pwrStateTime::ACT 256805791000                       # Time in different power states (Tick)
system.mem_ctrls.dram.rank0.pwrStateTime::ACT_PDN            0                       # Time in different power states (Tick)
system.mem_ctrls.dram.rank1.actEnergy      2864175300                       # Energy for activate commands per rank (pJ) (Joule)
system.mem_ctrls.dram.rank1.preEnergy      1522345275                       # Energy for precharge commands per rank (pJ) (Joule)
system.mem_ctrls.dram.rank1.readEnergy    18788917140                       # Energy for read commands per rank (pJ) (Joule)
system.mem_ctrls.dram.rank1.writeEnergy   13692007800                       # Energy for write commands per rank (pJ) (Joule)
system.mem_ctrls.dram.rank1.refreshEnergy 40572386400.000008                       # Energy for refresh commands per rank (pJ) (Joule)
system.mem_ctrls.dram.rank1.actBackEnergy 122950259700                       # Energy for active background per rank (pJ) (Joule)
system.mem_ctrls.dram.rank1.preBackEnergy  93828189120                       # Energy for precharge background per rank (pJ) (Joule)
system.mem_ctrls.dram.rank1.actPowerDownEnergy            0                       # Energy for active power-down per rank (pJ) (Joule)
system.mem_ctrls.dram.rank1.prePowerDownEnergy            0                       # Energy for precharge power-down per rank (pJ) (Joule)
system.mem_ctrls.dram.rank1.selfRefreshEnergy            0                       # Energy for self refresh per rank (pJ) (Joule)
system.mem_ctrls.dram.rank1.totalEnergy  294218280735                       # Total energy per rank (pJ) (Joule)
system.mem_ctrls.dram.rank1.averagePower   572.440286                       # Core power per rank (mW) (Watt)
system.mem_ctrls.dram.rank1.totalIdleTime            0                       # Total Idle time Per DRAM Rank (Tick)
system.mem_ctrls.dram.rank1.pwrStateTime::IDLE 240122750750                       # Time in different power states (Tick)
system.mem_ctrls.dram.rank1.pwrStateTime::REF  17162600000                       # Time in different power states (Tick)
system.mem_ctrls.dram.rank1.pwrStateTime::SREF            0                       # Time in different power states (Tick)
system.mem_ctrls.dram.rank1.pwrStateTime::PRE_PDN            0                       # Time in different power states (Tick)
system.mem_ctrls.dram.rank1.pwrStateTime::ACT 256686653250                       # Time in different power states (Tick)
system.mem_ctrls.dram.rank1.pwrStateTime::ACT_PDN            0                       # Time in different power states (Tick)
system.mem_ctrls.power_state.pwrStateResidencyTicks::UNDEFINED 513972004000                       # Cumulative time (in ticks) in various power states (Tick)
system.membus.transDist::ReadResp                 840                       # Transaction distribution (Count)
system.membus.transDist::WritebackDirty       5246637                       # Transaction distribution (Count)
system.membus.transDist::CleanEvict               209                       # Transaction distribution (Count)
system.membus.transDist::ReadExReq            5262990                       # Transaction distribution (Count)
system.membus.transDist::ReadExResp           5262990                       # Transaction distribution (Count)
system.membus.transDist::ReadSharedReq            840                       # Transaction distribution (Count)
system.membus.pktCount_system.l2.mem_side_port::system.mem_ctrls.port     15774506                       # Packet count per connected requestor and responder (Count)
system.membus.pktCount::total                15774506                       # Packet count per connected requestor and responder (Count)
system.membus.pktSize_system.l2.mem_side_port::system.mem_ctrls.port    672669888                       # Cumulative packet size per connected requestor and responder (Byte)
system.membus.pktSize::total                672669888                       # Cumulative packet size per connected requestor and responder (Byte)
system.membus.snoops                                0                       # Total snoops (Count)
system.membus.snoopTraffic                          0                       # Total snoop traffic (Byte)
system.membus.snoopFanout::samples            5263830                       # Request fanout histogram
system.membus.snoopFanout::mean                     0                       # Request fanout histogram
system.membus.snoopFanout::stdev                    0                       # Request fanout histogram
system.membus.snoopFanout::underflows               0      0.00%      0.00% # Request fanout histogram
system.membus.snoopFanout::0                  5263830    100.00%    100.00% # Request fanout histogram
system.membus.snoopFanout::1                        0      0.00%    100.00% # Request fanout histogram
system.membus.snoopFanout::overflows                0      0.00%    100.00% # Request fanout histogram
system.membus.snoopFanout::min_value                0                       # Request fanout histogram
system.membus.snoopFanout::max_value                0                       # Request fanout histogram
system.membus.snoopFanout::total              5263830                       # Request fanout histogram
system.membus.power_state.pwrStateResidencyTicks::UNDEFINED 513972004000                       # Cumulative time (in ticks) in various power states (Tick)
system.membus.reqLayer0.occupancy         31519907500                       # Layer occupancy (ticks) (Tick)
system.membus.reqLayer0.utilization               0.1                       # Layer utilization (Ratio)
system.membus.respLayer1.occupancy        27685812500                       # Layer occupancy (ticks) (Tick)
system.membus.respLayer1.utilization              0.1                       # Layer utilization (Ratio)
system.membus.snoop_filter.totRequests       10510676                       # Total number of requests made to the snoop filter. (Count)
system.membus.snoop_filter.hitSingleRequests      5246858                       # Number of requests hitting in the snoop filter with a single holder of the requested data. (Count)
system.membus.snoop_filter.hitMultiRequests            0                       # Number of requests hitting in the snoop filter with multiple (>1) holders of the requested data. (Count)
system.membus.snoop_filter.totSnoops                0                       # Total number of snoops made to the snoop filter. (Count)
system.membus.snoop_filter.hitSingleSnoops            0                       # Number of snoops hitting in the snoop filter with a single holder of the requested data. (Count)
system.membus.snoop_filter.hitMultiSnoops            0                       # Number of snoops hitting in the snoop filter with multiple (>1) holders of the requested data. (Count)
system.tol2bus.transDist::ReadResp               1610                       # Transaction distribution (Count)
system.tol2bus.transDist::WritebackDirty     10508333                       # Transaction distribution (Count)
system.tol2bus.transDist::WritebackClean            1                       # Transaction distribution (Count)
system.tol2bus.transDist::CleanEvict             1649                       # Transaction distribution (Count)
system.tol2bus.transDist::ReadExReq           5263551                       # Transaction distribution (Count)
system.tol2bus.transDist::ReadExResp          5263551                       # Transaction distribution (Count)
system.tol2bus.transDist::ReadCleanReq            589                       # Transaction distribution (Count)
system.tol2bus.transDist::ReadSharedReq          1021                       # Transaction distribution (Count)
system.tol2bus.pktCount_system.cpu.icache.mem_side_port::system.l2.cpu_side_port         1179                       # Packet count per connected requestor and responder (Count)
system.tol2bus.pktCount_system.cpu.dcache.mem_side_port::system.l2.cpu_side_port     15791668                       # Packet count per connected requestor and responder (Count)
system.tol2bus.pktCount::total               15792847                       # Packet count per connected requestor and responder (Count)
system.tol2bus.pktSize_system.cpu.icache.mem_side_port::system.l2.cpu_side_port        37760                       # Cumulative packet size per connected requestor and responder (Byte)
system.tol2bus.pktSize_system.cpu.dcache.mem_side_port::system.l2.cpu_side_port    673681152                       # Cumulative packet size per connected requestor and responder (Byte)
system.tol2bus.pktSize::total               673718912                       # Cumulative packet size per connected requestor and responder (Byte)
system.tol2bus.snoops                         5247458                       # Total snoops (Count)
system.tol2bus.snoopTraffic                 335784768                       # Total snoop traffic (Byte)
system.tol2bus.snoopFanout::samples          10512619                       # Request fanout histogram
system.tol2bus.snoopFanout::mean             0.000082                       # Request fanout histogram
system.tol2bus.snoopFanout::stdev            0.009097                       # Request fanout histogram
system.tol2bus.snoopFanout::underflows              0      0.00%      0.00% # Request fanout histogram
system.tol2bus.snoopFanout::0                10511758     99.99%     99.99% # Request fanout histogram
system.tol2bus.snoopFanout::1                     858      0.01%    100.00% # Request fanout histogram
system.tol2bus.snoopFanout::2                       3      0.00%    100.00% # Request fanout histogram
system.tol2bus.snoopFanout::overflows               0      0.00%    100.00% # Request fanout histogram
system.tol2bus.snoopFanout::min_value               0                       # Request fanout histogram
system.tol2bus.snoopFanout::max_value               2                       # Request fanout histogram
system.tol2bus.snoopFanout::total            10512619                       # Request fanout histogram
system.tol2bus.power_state.pwrStateResidencyTicks::UNDEFINED 513972004000                       # Cumulative time (in ticks) in various power states (Tick)
system.tol2bus.reqLayer0.occupancy        10525540000                       # Layer occupancy (ticks) (Tick)
system.tol2bus.reqLayer0.utilization              0.0                       # Layer utilization (Ratio)
system.tol2bus.respLayer0.occupancy            884498                       # Layer occupancy (ticks) (Tick)
system.tol2bus.respLayer0.utilization             0.0                       # Layer utilization (Ratio)
system.tol2bus.respLayer1.occupancy        7896859497                       # Layer occupancy (ticks) (Tick)
system.tol2bus.respLayer1.utilization             0.0                       # Layer utilization (Ratio)
system.tol2bus.snoop_filter.totRequests      10527686                       # Total number of requests made to the snoop filter. (Count)
system.tol2bus.snoop_filter.hitSingleRequests      5262525                       # Number of requests hitting in the snoop filter with a single holder of the requested data. (Count)
system.tol2bus.snoop_filter.hitMultiRequests          246                       # Number of requests hitting in the snoop filter with multiple (>1) holders of the requested data. (Count)
system.tol2bus.snoop_filter.totSnoops             615                       # Total number of snoops made to the snoop filter. (Count)
system.tol2bus.snoop_filter.hitSingleSnoops          612                       # Number of snoops hitting in the snoop filter with a single holder of the requested data. (Count)
system.tol2bus.snoop_filter.hitMultiSnoops            3                       # Number of snoops hitting in the snoop filter with multiple (>1) holders of the requested data. (Count)
system.voltage_domain.voltage                       1                       # Voltage in Volts (Volt)
system.workload.inst.arm                            0                       # number of arm instructions executed (Count)
system.workload.inst.quiesce                        0                       # number of quiesce instructions executed (Count)
system.cpu.idleCycles                       806253954                       # Total number of cycles that the object has spent stopped (Unspecified)
system.cpu.tickCycles                       221690054                       # Number of cycles that the object actually ticked (Unspecified)

---------- End Simulation Statistics   ----------
