
---------- Begin Simulation Statistics ----------
simSeconds                                   0.882916                       # Number of seconds simulated (Second)
simTicks                                 882915749000                       # Number of ticks simulated (Tick)
finalTick                                882915749000                       # Number of ticks from beginning of simulation (restored from checkpoints and never reset) (Tick)
simFreq                                  1000000000000                       # The number of ticks per simulated second ((Tick/Second))
hostSeconds                                    817.51                       # Real time elapsed on the host (Second)
hostTickRate                               1080003027                       # The number of ticks simulated per host second (ticks/s) ((Tick/Second))
hostMemory                                     734452                       # Number of bytes of host memory used (Byte)
simInsts                                    100000000                       # Number of instructions simulated (Count)
simOps                                      184220346                       # Number of ops (including micro ops) simulated (Count)
hostInstRate                                   122322                       # Simulator instruction rate (inst/s) ((Count/Second))
hostOpRate                                     225343                       # Simulator op (including micro ops) rate (op/s) ((Count/Second))
system.clk_domain.clock                          1000                       # Clock period in ticks (Tick)
system.cpu.numCycles                       1765831498                       # Number of cpu cycles simulated (Cycle)
system.cpu.numWorkItemsStarted                      0                       # Number of work items this cpu started (Count)
system.cpu.numWorkItemsCompleted                    0                       # Number of work items this cpu completed (Count)
system.cpu.numInsts                         100000000                       # Number of instructions committed (Count)
system.cpu.numOps                           184220346                       # Number of ops (including micro ops) committed (Count)
system.cpu.numDiscardedOps                       4208                       # Number of ops (including micro ops) which were discarded before commit (Count)
system.cpu.numFetchSuspends                         0                       # Number of times Execute suspended instruction fetching (Count)
system.cpu.cpi                              17.658315                       # CPI: cycles per instruction ((Cycle/Count))
system.cpu.ipc                               0.056631                       # IPC: instructions per cycle ((Count/Cycle))
system.cpu.committedInstType_0::No_OpClass            0      0.00%      0.00% # Class of committed instruction (Count)
system.cpu.committedInstType_0::IntAlu       97640466     53.00%     53.00% # Class of committed instruction (Count)
system.cpu.committedInstType_0::IntMult        114699      0.06%     53.06% # Class of committed instruction (Count)
system.cpu.committedInstType_0::IntDiv              0      0.00%     53.06% # Class of committed instruction (Count)
system.cpu.committedInstType_0::FloatAdd            0      0.00%     53.06% # Class of committed instruction (Count)
system.cpu.committedInstType_0::FloatCmp            0      0.00%     53.06% # Class of committed instruction (Count)
system.cpu.committedInstType_0::FloatCvt            0      0.00%     53.06% # Class of committed instruction (Count)
system.cpu.committedInstType_0::FloatMult            0      0.00%     53.06% # Class of committed instruction (Count)
system.cpu.committedInstType_0::FloatMultAcc            0      0.00%     53.06% # Class of committed instruction (Count)
system.cpu.committedInstType_0::FloatDiv            0      0.00%     53.06% # Class of committed instruction (Count)
system.cpu.committedInstType_0::FloatMisc            0      0.00%     53.06% # Class of committed instruction (Count)
system.cpu.committedInstType_0::FloatSqrt            0      0.00%     53.06% # Class of committed instruction (Count)
system.cpu.committedInstType_0::SimdAdd             8      0.00%     53.06% # Class of committed instruction (Count)
system.cpu.committedInstType_0::SimdAddAcc            0      0.00%     53.06% # Class of committed instruction (Count)
system.cpu.committedInstType_0::SimdAlu             8      0.00%     53.06% # Class of committed instruction (Count)
system.cpu.committedInstType_0::SimdCmp             6      0.00%     53.06% # Class of committed instruction (Count)
system.cpu.committedInstType_0::SimdCvt             0      0.00%     53.06% # Class of committed instruction (Count)
system.cpu.committedInstType_0::SimdMisc            1      0.00%     53.06% # Class of committed instruction (Count)
system.cpu.committedInstType_0::SimdMult            0      0.00%     53.06% # Class of committed instruction (Count)
system.cpu.committedInstType_0::SimdMultAcc            0      0.00%     53.06% # Class of committed instruction (Count)
system.cpu.committedInstType_0::SimdShift            0      0.00%     53.06% # Class of committed instruction (Count)
system.cpu.committedInstType_0::SimdShiftAcc            0      0.00%     53.06% # Class of committed instruction (Count)
system.cpu.committedInstType_0::SimdDiv             0      0.00%     53.06% # Class of committed instruction (Count)
system.cpu.committedInstType_0::SimdSqrt            0      0.00%     53.06% # Class of committed instruction (Count)
system.cpu.committedInstType_0::SimdFloatAdd            0      0.00%     53.06% # Class of committed instruction (Count)
system.cpu.committedInstType_0::SimdFloatAlu            0      0.00%     53.06% # Class of committed instruction (Count)
system.cpu.committedInstType_0::SimdFloatCmp            0      0.00%     53.06% # Class of committed instruction (Count)
system.cpu.committedInstType_0::SimdFloatCvt            0      0.00%     53.06% # Class of committed instruction (Count)
system.cpu.committedInstType_0::SimdFloatDiv            0      0.00%     53.06% # Class of committed instruction (Count)
system.cpu.committedInstType_0::SimdFloatMisc            6      0.00%     53.06% # Class of committed instruction (Count)
system.cpu.committedInstType_0::SimdFloatMult            0      0.00%     53.06% # Class of committed instruction (Count)
system.cpu.committedInstType_0::SimdFloatMultAcc            0      0.00%     53.06% # Class of committed instruction (Count)
system.cpu.committedInstType_0::SimdFloatSqrt            0      0.00%     53.06% # Class of committed instruction (Count)
system.cpu.committedInstType_0::SimdReduceAdd            0      0.00%     53.06% # Class of committed instruction (Count)
system.cpu.committedInstType_0::SimdReduceAlu            0      0.00%     53.06% # Class of committed instruction (Count)
system.cpu.committedInstType_0::SimdReduceCmp            0      0.00%     53.06% # Class of committed instruction (Count)
system.cpu.committedInstType_0::SimdFloatReduceAdd            0      0.00%     53.06% # Class of committed instruction (Count)
system.cpu.committedInstType_0::SimdFloatReduceCmp            0      0.00%     53.06% # Class of committed instruction (Count)
system.cpu.committedInstType_0::SimdAes             0      0.00%     53.06% # Class of committed instruction (Count)
system.cpu.committedInstType_0::SimdAesMix            0      0.00%     53.06% # Class of committed instruction (Count)
system.cpu.committedInstType_0::SimdSha1Hash            0      0.00%     53.06% # Class of committed instruction (Count)
system.cpu.committedInstType_0::SimdSha1Hash2            0      0.00%     53.06% # Class of committed instruction (Count)
system.cpu.committedInstType_0::SimdSha256Hash            0      0.00%     53.06% # Class of committed instruction (Count)
system.cpu.committedInstType_0::SimdSha256Hash2            0      0.00%     53.06% # Class of committed instruction (Count)
system.cpu.committedInstType_0::SimdShaSigma2            0      0.00%     53.06% # Class of committed instruction (Count)
system.cpu.committedInstType_0::SimdShaSigma3            0      0.00%     53.06% # Class of committed instruction (Count)
system.cpu.committedInstType_0::SimdPredAlu            0      0.00%     53.06% # Class of committed instruction (Count)
system.cpu.committedInstType_0::MemRead       2082588      1.13%     54.19% # Class of committed instruction (Count)
system.cpu.committedInstType_0::MemWrite     84382564     45.81%    100.00% # Class of committed instruction (Count)
system.cpu.committedInstType_0::FloatMemRead            0      0.00%    100.00% # Class of committed instruction (Count)
system.cpu.committedInstType_0::FloatMemWrite            0      0.00%    100.00% # Class of committed instruction (Count)
system.cpu.committedInstType_0::IprAccess            0      0.00%    100.00% # Class of committed instruction (Count)
system.cpu.committedInstType_0::InstPrefetch            0      0.00%    100.00% # Class of committed instruction (Count)
system.cpu.committedInstType_0::total       184220346                       # Class of committed instruction (Count)
system.cpu.branchPred.lookups                10658054                       # Number of BP lookups (Count)
system.cpu.branchPred.condPredicted          10649943                       # Number of conditional branches predicted (Count)
system.cpu.branchPred.condIncorrect              1442                       # Number of conditional branches incorrect (Count)
system.cpu.branchPred.BTBLookups             10650233                       # Number of BTB lookups (Count)
system.cpu.branchPred.BTBHits                10649089                       # Number of BTB hits (Count)
system.cpu.branchPred.BTBHitRatio            0.999893                       # BTB Hit Ratio (Ratio)
system.cpu.branchPred.RASUsed                    2679                       # Number of times the RAS was used to get a target. (Count)
system.cpu.branchPred.RASIncorrect                  0                       # Number of incorrect RAS predictions. (Count)
system.cpu.branchPred.indirectLookups             179                       # Number of indirect predictor lookups. (Count)
system.cpu.branchPred.indirectHits                 22                       # Number of indirect target hits. (Count)
system.cpu.branchPred.indirectMisses              157                       # Number of indirect misses. (Count)
system.cpu.branchPred.indirectMispredicted          105                       # Number of mispredicted indirect branches. (Count)
system.cpu.dcache.demandHits::cpu.data       65334855                       # number of demand (read+write) hits (Count)
system.cpu.dcache.demandHits::total          65334855                       # number of demand (read+write) hits (Count)
system.cpu.dcache.overallHits::cpu.data      65334883                       # number of overall hits (Count)
system.cpu.dcache.overallHits::total         65334883                       # number of overall hits (Count)
system.cpu.dcache.demandMisses::cpu.data     21047365                       # number of demand (read+write) misses (Count)
system.cpu.dcache.demandMisses::total        21047365                       # number of demand (read+write) misses (Count)
system.cpu.dcache.overallMisses::cpu.data     21047408                       # number of overall misses (Count)
system.cpu.dcache.overallMisses::total       21047408                       # number of overall misses (Count)
system.cpu.dcache.demandMissLatency::cpu.data 1675463438999                       # number of demand (read+write) miss ticks (Tick)
system.cpu.dcache.demandMissLatency::total 1675463438999                       # number of demand (read+write) miss ticks (Tick)
system.cpu.dcache.overallMissLatency::cpu.data 1675463438999                       # number of overall miss ticks (Tick)
system.cpu.dcache.overallMissLatency::total 1675463438999                       # number of overall miss ticks (Tick)
system.cpu.dcache.demandAccesses::cpu.data     86382220                       # number of demand (read+write) accesses (Count)
system.cpu.dcache.demandAccesses::total      86382220                       # number of demand (read+write) accesses (Count)
system.cpu.dcache.overallAccesses::cpu.data     86382291                       # number of overall (read+write) accesses (Count)
system.cpu.dcache.overallAccesses::total     86382291                       # number of overall (read+write) accesses (Count)
system.cpu.dcache.demandMissRate::cpu.data     0.243654                       # miss rate for demand accesses (Ratio)
system.cpu.dcache.demandMissRate::total      0.243654                       # miss rate for demand accesses (Ratio)
system.cpu.dcache.overallMissRate::cpu.data     0.243654                       # miss rate for overall accesses (Ratio)
system.cpu.dcache.overallMissRate::total     0.243654                       # miss rate for overall accesses (Ratio)
system.cpu.dcache.demandAvgMissLatency::cpu.data 79604.427395                       # average overall miss latency ((Cycle/Count))
system.cpu.dcache.demandAvgMissLatency::total 79604.427395                       # average overall miss latency ((Cycle/Count))
system.cpu.dcache.overallAvgMissLatency::cpu.data 79604.264763                       # average overall miss latency ((Cycle/Count))
system.cpu.dcache.overallAvgMissLatency::total 79604.264763                       # average overall miss latency ((Cycle/Count))
system.cpu.dcache.blockedCycles::no_mshrs          125                       # number of cycles access was blocked (Cycle)
system.cpu.dcache.blockedCycles::no_targets            0                       # number of cycles access was blocked (Cycle)
system.cpu.dcache.blockedCauses::no_mshrs            2                       # number of times access was blocked (Count)
system.cpu.dcache.blockedCauses::no_targets            0                       # number of times access was blocked (Count)
system.cpu.dcache.avgBlocked::no_mshrs      62.500000                       # average number of cycles each access was blocked ((Cycle/Count))
system.cpu.dcache.avgBlocked::no_targets          nan                       # average number of cycles each access was blocked ((Cycle/Count))
system.cpu.dcache.writebacks::writebacks     10521872                       # number of writebacks (Count)
system.cpu.dcache.writebacks::total          10521872                       # number of writebacks (Count)
system.cpu.dcache.demandMshrHits::cpu.data     10521048                       # number of demand (read+write) MSHR hits (Count)
system.cpu.dcache.demandMshrHits::total      10521048                       # number of demand (read+write) MSHR hits (Count)
system.cpu.dcache.overallMshrHits::cpu.data     10521048                       # number of overall MSHR hits (Count)
system.cpu.dcache.overallMshrHits::total     10521048                       # number of overall MSHR hits (Count)
system.cpu.dcache.demandMshrMisses::cpu.data     10526317                       # number of demand (read+write) MSHR misses (Count)
system.cpu.dcache.demandMshrMisses::total     10526317                       # number of demand (read+write) MSHR misses (Count)
system.cpu.dcache.overallMshrMisses::cpu.data     10526360                       # number of overall MSHR misses (Count)
system.cpu.dcache.overallMshrMisses::total     10526360                       # number of overall MSHR misses (Count)
system.cpu.dcache.demandMshrMissLatency::cpu.data 827425996499                       # number of demand (read+write) MSHR miss ticks (Tick)
system.cpu.dcache.demandMshrMissLatency::total 827425996499                       # number of demand (read+write) MSHR miss ticks (Tick)
system.cpu.dcache.overallMshrMissLatency::cpu.data 827429407499                       # number of overall MSHR miss ticks (Tick)
system.cpu.dcache.overallMshrMissLatency::total 827429407499                       # number of overall MSHR miss ticks (Tick)
system.cpu.dcache.demandMshrMissRate::cpu.data     0.121857                       # mshr miss ratio for demand accesses (Ratio)
system.cpu.dcache.demandMshrMissRate::total     0.121857                       # mshr miss ratio for demand accesses (Ratio)
system.cpu.dcache.overallMshrMissRate::cpu.data     0.121858                       # mshr miss ratio for overall accesses (Ratio)
system.cpu.dcache.overallMshrMissRate::total     0.121858                       # mshr miss ratio for overall accesses (Ratio)
system.cpu.dcache.demandAvgMshrMissLatency::cpu.data 78605.460628                       # average overall mshr miss latency ((Cycle/Count))
system.cpu.dcache.demandAvgMshrMissLatency::total 78605.460628                       # average overall mshr miss latency ((Cycle/Count))
system.cpu.dcache.overallAvgMshrMissLatency::cpu.data 78605.463569                       # average overall mshr miss latency ((Cycle/Count))
system.cpu.dcache.overallAvgMshrMissLatency::total 78605.463569                       # average overall mshr miss latency ((Cycle/Count))
system.cpu.dcache.replacements               10522264                       # number of replacements (Count)
system.cpu.dcache.LoadLockedReq.hits::cpu.data           33                       # number of LoadLockedReq hits (Count)
system.cpu.dcache.LoadLockedReq.hits::total           33                       # number of LoadLockedReq hits (Count)
system.cpu.dcache.LoadLockedReq.misses::cpu.data            1                       # number of LoadLockedReq misses (Count)
system.cpu.dcache.LoadLockedReq.misses::total            1                       # number of LoadLockedReq misses (Count)
system.cpu.dcache.LoadLockedReq.missLatency::cpu.data        86000                       # number of LoadLockedReq miss ticks (Tick)
system.cpu.dcache.LoadLockedReq.missLatency::total        86000                       # number of LoadLockedReq miss ticks (Tick)
system.cpu.dcache.LoadLockedReq.accesses::cpu.data           34                       # number of LoadLockedReq accesses(hits+misses) (Count)
system.cpu.dcache.LoadLockedReq.accesses::total           34                       # number of LoadLockedReq accesses(hits+misses) (Count)
system.cpu.dcache.LoadLockedReq.missRate::cpu.data     0.029412                       # miss rate for LoadLockedReq accesses (Ratio)
system.cpu.dcache.LoadLockedReq.missRate::total     0.029412                       # miss rate for LoadLockedReq accesses (Ratio)
system.cpu.dcache.LoadLockedReq.avgMissLatency::cpu.data        86000                       # average LoadLockedReq miss latency ((Tick/Count))
system.cpu.dcache.LoadLockedReq.avgMissLatency::total        86000                       # average LoadLockedReq miss latency ((Tick/Count))
system.cpu.dcache.LoadLockedReq.mshrMisses::cpu.data            1                       # number of LoadLockedReq MSHR misses (Count)
system.cpu.dcache.LoadLockedReq.mshrMisses::total            1                       # number of LoadLockedReq MSHR misses (Count)
system.cpu.dcache.LoadLockedReq.mshrMissLatency::cpu.data        85000                       # number of LoadLockedReq MSHR miss ticks (Tick)
system.cpu.dcache.LoadLockedReq.mshrMissLatency::total        85000                       # number of LoadLockedReq MSHR miss ticks (Tick)
system.cpu.dcache.LoadLockedReq.mshrMissRate::cpu.data     0.029412                       # mshr miss rate for LoadLockedReq accesses (Ratio)
system.cpu.dcache.LoadLockedReq.mshrMissRate::total     0.029412                       # mshr miss rate for LoadLockedReq accesses (Ratio)
system.cpu.dcache.LoadLockedReq.avgMshrMissLatency::cpu.data        85000                       # average LoadLockedReq mshr miss latency ((Tick/Count))
system.cpu.dcache.LoadLockedReq.avgMshrMissLatency::total        85000                       # average LoadLockedReq mshr miss latency ((Tick/Count))
system.cpu.dcache.ReadReq.hits::cpu.data      2043507                       # number of ReadReq hits (Count)
system.cpu.dcache.ReadReq.hits::total         2043507                       # number of ReadReq hits (Count)
system.cpu.dcache.ReadReq.misses::cpu.data          424                       # number of ReadReq misses (Count)
system.cpu.dcache.ReadReq.misses::total           424                       # number of ReadReq misses (Count)
system.cpu.dcache.ReadReq.missLatency::cpu.data     33751500                       # number of ReadReq miss ticks (Tick)
system.cpu.dcache.ReadReq.missLatency::total     33751500                       # number of ReadReq miss ticks (Tick)
system.cpu.dcache.ReadReq.accesses::cpu.data      2043931                       # number of ReadReq accesses(hits+misses) (Count)
system.cpu.dcache.ReadReq.accesses::total      2043931                       # number of ReadReq accesses(hits+misses) (Count)
system.cpu.dcache.ReadReq.missRate::cpu.data     0.000207                       # miss rate for ReadReq accesses (Ratio)
system.cpu.dcache.ReadReq.missRate::total     0.000207                       # miss rate for ReadReq accesses (Ratio)
system.cpu.dcache.ReadReq.avgMissLatency::cpu.data 79602.594340                       # average ReadReq miss latency ((Tick/Count))
system.cpu.dcache.ReadReq.avgMissLatency::total 79602.594340                       # average ReadReq miss latency ((Tick/Count))
system.cpu.dcache.ReadReq.mshrHits::cpu.data           26                       # number of ReadReq MSHR hits (Count)
system.cpu.dcache.ReadReq.mshrHits::total           26                       # number of ReadReq MSHR hits (Count)
system.cpu.dcache.ReadReq.mshrMisses::cpu.data          398                       # number of ReadReq MSHR misses (Count)
system.cpu.dcache.ReadReq.mshrMisses::total          398                       # number of ReadReq MSHR misses (Count)
system.cpu.dcache.ReadReq.mshrMissLatency::cpu.data     31482500                       # number of ReadReq MSHR miss ticks (Tick)
system.cpu.dcache.ReadReq.mshrMissLatency::total     31482500                       # number of ReadReq MSHR miss ticks (Tick)
system.cpu.dcache.ReadReq.mshrMissRate::cpu.data     0.000195                       # mshr miss rate for ReadReq accesses (Ratio)
system.cpu.dcache.ReadReq.mshrMissRate::total     0.000195                       # mshr miss rate for ReadReq accesses (Ratio)
system.cpu.dcache.ReadReq.avgMshrMissLatency::cpu.data 79101.758794                       # average ReadReq mshr miss latency ((Tick/Count))
system.cpu.dcache.ReadReq.avgMshrMissLatency::total 79101.758794                       # average ReadReq mshr miss latency ((Tick/Count))
system.cpu.dcache.SoftPFReq.hits::cpu.data           28                       # number of SoftPFReq hits (Count)
system.cpu.dcache.SoftPFReq.hits::total            28                       # number of SoftPFReq hits (Count)
system.cpu.dcache.SoftPFReq.misses::cpu.data           43                       # number of SoftPFReq misses (Count)
system.cpu.dcache.SoftPFReq.misses::total           43                       # number of SoftPFReq misses (Count)
system.cpu.dcache.SoftPFReq.accesses::cpu.data           71                       # number of SoftPFReq accesses(hits+misses) (Count)
system.cpu.dcache.SoftPFReq.accesses::total           71                       # number of SoftPFReq accesses(hits+misses) (Count)
system.cpu.dcache.SoftPFReq.missRate::cpu.data     0.605634                       # miss rate for SoftPFReq accesses (Ratio)
system.cpu.dcache.SoftPFReq.missRate::total     0.605634                       # miss rate for SoftPFReq accesses (Ratio)
system.cpu.dcache.SoftPFReq.mshrMisses::cpu.data           43                       # number of SoftPFReq MSHR misses (Count)
system.cpu.dcache.SoftPFReq.mshrMisses::total           43                       # number of SoftPFReq MSHR misses (Count)
system.cpu.dcache.SoftPFReq.mshrMissLatency::cpu.data      3411000                       # number of SoftPFReq MSHR miss ticks (Tick)
system.cpu.dcache.SoftPFReq.mshrMissLatency::total      3411000                       # number of SoftPFReq MSHR miss ticks (Tick)
system.cpu.dcache.SoftPFReq.mshrMissRate::cpu.data     0.605634                       # mshr miss rate for SoftPFReq accesses (Ratio)
system.cpu.dcache.SoftPFReq.mshrMissRate::total     0.605634                       # mshr miss rate for SoftPFReq accesses (Ratio)
system.cpu.dcache.SoftPFReq.avgMshrMissLatency::cpu.data 79325.581395                       # average SoftPFReq mshr miss latency ((Tick/Count))
system.cpu.dcache.SoftPFReq.avgMshrMissLatency::total 79325.581395                       # average SoftPFReq mshr miss latency ((Tick/Count))
system.cpu.dcache.StoreCondReq.hits::cpu.data           34                       # number of StoreCondReq hits (Count)
system.cpu.dcache.StoreCondReq.hits::total           34                       # number of StoreCondReq hits (Count)
system.cpu.dcache.StoreCondReq.accesses::cpu.data           34                       # number of StoreCondReq accesses(hits+misses) (Count)
system.cpu.dcache.StoreCondReq.accesses::total           34                       # number of StoreCondReq accesses(hits+misses) (Count)
system.cpu.dcache.WriteReq.hits::cpu.data     63291348                       # number of WriteReq hits (Count)
system.cpu.dcache.WriteReq.hits::total       63291348                       # number of WriteReq hits (Count)
system.cpu.dcache.WriteReq.misses::cpu.data     21046941                       # number of WriteReq misses (Count)
system.cpu.dcache.WriteReq.misses::total     21046941                       # number of WriteReq misses (Count)
system.cpu.dcache.WriteReq.missLatency::cpu.data 1675429687499                       # number of WriteReq miss ticks (Tick)
system.cpu.dcache.WriteReq.missLatency::total 1675429687499                       # number of WriteReq miss ticks (Tick)
system.cpu.dcache.WriteReq.accesses::cpu.data     84338289                       # number of WriteReq accesses(hits+misses) (Count)
system.cpu.dcache.WriteReq.accesses::total     84338289                       # number of WriteReq accesses(hits+misses) (Count)
system.cpu.dcache.WriteReq.missRate::cpu.data     0.249554                       # miss rate for WriteReq accesses (Ratio)
system.cpu.dcache.WriteReq.missRate::total     0.249554                       # miss rate for WriteReq accesses (Ratio)
system.cpu.dcache.WriteReq.avgMissLatency::cpu.data 79604.427432                       # average WriteReq miss latency ((Tick/Count))
system.cpu.dcache.WriteReq.avgMissLatency::total 79604.427432                       # average WriteReq miss latency ((Tick/Count))
system.cpu.dcache.WriteReq.mshrHits::cpu.data     10521022                       # number of WriteReq MSHR hits (Count)
system.cpu.dcache.WriteReq.mshrHits::total     10521022                       # number of WriteReq MSHR hits (Count)
system.cpu.dcache.WriteReq.mshrMisses::cpu.data     10525919                       # number of WriteReq MSHR misses (Count)
system.cpu.dcache.WriteReq.mshrMisses::total     10525919                       # number of WriteReq MSHR misses (Count)
system.cpu.dcache.WriteReq.mshrMissLatency::cpu.data 827394513999                       # number of WriteReq MSHR miss ticks (Tick)
system.cpu.dcache.WriteReq.mshrMissLatency::total 827394513999                       # number of WriteReq MSHR miss ticks (Tick)
system.cpu.dcache.WriteReq.mshrMissRate::cpu.data     0.124806                       # mshr miss rate for WriteReq accesses (Ratio)
system.cpu.dcache.WriteReq.mshrMissRate::total     0.124806                       # mshr miss rate for WriteReq accesses (Ratio)
system.cpu.dcache.WriteReq.avgMshrMissLatency::cpu.data 78605.441862                       # average WriteReq mshr miss latency ((Tick/Count))
system.cpu.dcache.WriteReq.avgMshrMissLatency::total 78605.441862                       # average WriteReq mshr miss latency ((Tick/Count))
system.cpu.dcache.power_state.pwrStateResidencyTicks::UNDEFINED 882915749000                       # Cumulative time (in ticks) in various power states (Tick)
system.cpu.dcache.tags.tagsInUse          4091.330024                       # Average ticks per tags in use ((Tick/Count))
system.cpu.dcache.tags.totalRefs             75861310                       # Total number of references to valid blocks. (Count)
system.cpu.dcache.tags.sampledRefs           10526360                       # Sample count of references to valid blocks. (Count)
system.cpu.dcache.tags.avgRefs               7.206794                       # Average number of references to valid blocks. ((Count/Count))
system.cpu.dcache.tags.warmupTick              176500                       # The tick when the warmup percentage was hit. (Tick)
system.cpu.dcache.tags.occupancies::cpu.data  4091.330024                       # Average occupied blocks per tick, per requestor ((Count/Tick))
system.cpu.dcache.tags.avgOccs::cpu.data     0.998860                       # Average percentage of cache occupancy ((Ratio/Tick))
system.cpu.dcache.tags.avgOccs::total        0.998860                       # Average percentage of cache occupancy ((Ratio/Tick))
system.cpu.dcache.tags.occupanciesTaskId::1024         4096                       # Occupied blocks per task id (Count)
system.cpu.dcache.tags.ageTaskId_1024::0          116                       # Occupied blocks per task id, per block age (Count)
system.cpu.dcache.tags.ageTaskId_1024::1         1080                       # Occupied blocks per task id, per block age (Count)
system.cpu.dcache.tags.ageTaskId_1024::2         2900                       # Occupied blocks per task id, per block age (Count)
system.cpu.dcache.tags.ratioOccsTaskId::1024            1                       # Ratio of occupied blocks and all blocks, per task id (Ratio)
system.cpu.dcache.tags.tagAccesses          183291078                       # Number of tag accesses (Count)
system.cpu.dcache.tags.dataAccesses         183291078                       # Number of data accesses (Count)
system.cpu.dcache.tags.power_state.pwrStateResidencyTicks::UNDEFINED 882915749000                       # Cumulative time (in ticks) in various power states (Tick)
system.cpu.fetch2.intInstructions            45068656                       # Number of integer instructions successfully decoded (Count)
system.cpu.fetch2.fpInstructions                    0                       # Number of floating point instructions successfully decoded (Count)
system.cpu.fetch2.vecInstructions                   0                       # Number of SIMD instructions successfully decoded (Count)
system.cpu.fetch2.loadInstructions            2085914                       # Number of memory load instructions successfully decoded (Count)
system.cpu.fetch2.storeInstructions            168978                       # Number of memory store instructions successfully decoded (Count)
system.cpu.fetch2.amoInstructions                   0                       # Number of memory atomic instructions successfully decoded (Count)
system.cpu.icache.demandHits::cpu.inst       42860780                       # number of demand (read+write) hits (Count)
system.cpu.icache.demandHits::total          42860780                       # number of demand (read+write) hits (Count)
system.cpu.icache.overallHits::cpu.inst      42860780                       # number of overall hits (Count)
system.cpu.icache.overallHits::total         42860780                       # number of overall hits (Count)
system.cpu.icache.demandMisses::cpu.inst          929                       # number of demand (read+write) misses (Count)
system.cpu.icache.demandMisses::total             929                       # number of demand (read+write) misses (Count)
system.cpu.icache.overallMisses::cpu.inst          929                       # number of overall misses (Count)
system.cpu.icache.overallMisses::total            929                       # number of overall misses (Count)
system.cpu.icache.demandMissLatency::cpu.inst     73141000                       # number of demand (read+write) miss ticks (Tick)
system.cpu.icache.demandMissLatency::total     73141000                       # number of demand (read+write) miss ticks (Tick)
system.cpu.icache.overallMissLatency::cpu.inst     73141000                       # number of overall miss ticks (Tick)
system.cpu.icache.overallMissLatency::total     73141000                       # number of overall miss ticks (Tick)
system.cpu.icache.demandAccesses::cpu.inst     42861709                       # number of demand (read+write) accesses (Count)
system.cpu.icache.demandAccesses::total      42861709                       # number of demand (read+write) accesses (Count)
system.cpu.icache.overallAccesses::cpu.inst     42861709                       # number of overall (read+write) accesses (Count)
system.cpu.icache.overallAccesses::total     42861709                       # number of overall (read+write) accesses (Count)
system.cpu.icache.demandMissRate::cpu.inst     0.000022                       # miss rate for demand accesses (Ratio)
system.cpu.icache.demandMissRate::total      0.000022                       # miss rate for demand accesses (Ratio)
system.cpu.icache.overallMissRate::cpu.inst     0.000022                       # miss rate for overall accesses (Ratio)
system.cpu.icache.overallMissRate::total     0.000022                       # miss rate for overall accesses (Ratio)
system.cpu.icache.demandAvgMissLatency::cpu.inst 78730.893434                       # average overall miss latency ((Cycle/Count))
system.cpu.icache.demandAvgMissLatency::total 78730.893434                       # average overall miss latency ((Cycle/Count))
system.cpu.icache.overallAvgMissLatency::cpu.inst 78730.893434                       # average overall miss latency ((Cycle/Count))
system.cpu.icache.overallAvgMissLatency::total 78730.893434                       # average overall miss latency ((Cycle/Count))
system.cpu.icache.blockedCycles::no_mshrs            0                       # number of cycles access was blocked (Cycle)
system.cpu.icache.blockedCycles::no_targets            0                       # number of cycles access was blocked (Cycle)
system.cpu.icache.blockedCauses::no_mshrs            0                       # number of times access was blocked (Count)
system.cpu.icache.blockedCauses::no_targets            0                       # number of times access was blocked (Count)
system.cpu.icache.avgBlocked::no_mshrs            nan                       # average number of cycles each access was blocked ((Cycle/Count))
system.cpu.icache.avgBlocked::no_targets          nan                       # average number of cycles each access was blocked ((Cycle/Count))
system.cpu.icache.demandMshrMisses::cpu.inst          929                       # number of demand (read+write) MSHR misses (Count)
system.cpu.icache.demandMshrMisses::total          929                       # number of demand (read+write) MSHR misses (Count)
system.cpu.icache.overallMshrMisses::cpu.inst          929                       # number of overall MSHR misses (Count)
system.cpu.icache.overallMshrMisses::total          929                       # number of overall MSHR misses (Count)
system.cpu.icache.demandMshrMissLatency::cpu.inst     72212000                       # number of demand (read+write) MSHR miss ticks (Tick)
system.cpu.icache.demandMshrMissLatency::total     72212000                       # number of demand (read+write) MSHR miss ticks (Tick)
system.cpu.icache.overallMshrMissLatency::cpu.inst     72212000                       # number of overall MSHR miss ticks (Tick)
system.cpu.icache.overallMshrMissLatency::total     72212000                       # number of overall MSHR miss ticks (Tick)
system.cpu.icache.demandMshrMissRate::cpu.inst     0.000022                       # mshr miss ratio for demand accesses (Ratio)
system.cpu.icache.demandMshrMissRate::total     0.000022                       # mshr miss ratio for demand accesses (Ratio)
system.cpu.icache.overallMshrMissRate::cpu.inst     0.000022                       # mshr miss ratio for overall accesses (Ratio)
system.cpu.icache.overallMshrMissRate::total     0.000022                       # mshr miss ratio for overall accesses (Ratio)
system.cpu.icache.demandAvgMshrMissLatency::cpu.inst 77730.893434                       # average overall mshr miss latency ((Cycle/Count))
system.cpu.icache.demandAvgMshrMissLatency::total 77730.893434                       # average overall mshr miss latency ((Cycle/Count))
system.cpu.icache.overallAvgMshrMissLatency::cpu.inst 77730.893434                       # average overall mshr miss latency ((Cycle/Count))
system.cpu.icache.overallAvgMshrMissLatency::total 77730.893434                       # average overall mshr miss latency ((Cycle/Count))
system.cpu.icache.replacements                      0                       # number of replacements (Count)
system.cpu.icache.ReadReq.hits::cpu.inst     42860780                       # number of ReadReq hits (Count)
system.cpu.icache.ReadReq.hits::total        42860780                       # number of ReadReq hits (Count)
system.cpu.icache.ReadReq.misses::cpu.inst          929                       # number of ReadReq misses (Count)
system.cpu.icache.ReadReq.misses::total           929                       # number of ReadReq misses (Count)
system.cpu.icache.ReadReq.missLatency::cpu.inst     73141000                       # number of ReadReq miss ticks (Tick)
system.cpu.icache.ReadReq.missLatency::total     73141000                       # number of ReadReq miss ticks (Tick)
system.cpu.icache.ReadReq.accesses::cpu.inst     42861709                       # number of ReadReq accesses(hits+misses) (Count)
system.cpu.icache.ReadReq.accesses::total     42861709                       # number of ReadReq accesses(hits+misses) (Count)
system.cpu.icache.ReadReq.missRate::cpu.inst     0.000022                       # miss rate for ReadReq accesses (Ratio)
system.cpu.icache.ReadReq.missRate::total     0.000022                       # miss rate for ReadReq accesses (Ratio)
system.cpu.icache.ReadReq.avgMissLatency::cpu.inst 78730.893434                       # average ReadReq miss latency ((Tick/Count))
system.cpu.icache.ReadReq.avgMissLatency::total 78730.893434                       # average ReadReq miss latency ((Tick/Count))
system.cpu.icache.ReadReq.mshrMisses::cpu.inst          929                       # number of ReadReq MSHR misses (Count)
system.cpu.icache.ReadReq.mshrMisses::total          929                       # number of ReadReq MSHR misses (Count)
system.cpu.icache.ReadReq.mshrMissLatency::cpu.inst     72212000                       # number of ReadReq MSHR miss ticks (Tick)
system.cpu.icache.ReadReq.mshrMissLatency::total     72212000                       # number of ReadReq MSHR miss ticks (Tick)
system.cpu.icache.ReadReq.mshrMissRate::cpu.inst     0.000022                       # mshr miss rate for ReadReq accesses (Ratio)
system.cpu.icache.ReadReq.mshrMissRate::total     0.000022                       # mshr miss rate for ReadReq accesses (Ratio)
system.cpu.icache.ReadReq.avgMshrMissLatency::cpu.inst 77730.893434                       # average ReadReq mshr miss latency ((Tick/Count))
system.cpu.icache.ReadReq.avgMshrMissLatency::total 77730.893434                       # average ReadReq mshr miss latency ((Tick/Count))
system.cpu.icache.power_state.pwrStateResidencyTicks::UNDEFINED 882915749000                       # Cumulative time (in ticks) in various power states (Tick)
system.cpu.icache.tags.tagsInUse           765.324479                       # Average ticks per tags in use ((Tick/Count))
system.cpu.icache.tags.totalRefs             42861709                       # Total number of references to valid blocks. (Count)
system.cpu.icache.tags.sampledRefs                929                       # Sample count of references to valid blocks. (Count)
system.cpu.icache.tags.avgRefs           46137.469322                       # Average number of references to valid blocks. ((Count/Count))
system.cpu.icache.tags.warmupTick               87500                       # The tick when the warmup percentage was hit. (Tick)
system.cpu.icache.tags.occupancies::cpu.inst   765.324479                       # Average occupied blocks per tick, per requestor ((Count/Tick))
system.cpu.icache.tags.avgOccs::cpu.inst     0.186847                       # Average percentage of cache occupancy ((Ratio/Tick))
system.cpu.icache.tags.avgOccs::total        0.186847                       # Average percentage of cache occupancy ((Ratio/Tick))
system.cpu.icache.tags.occupanciesTaskId::1024          929                       # Occupied blocks per task id (Count)
system.cpu.icache.tags.ageTaskId_1024::4          929                       # Occupied blocks per task id, per block age (Count)
system.cpu.icache.tags.ratioOccsTaskId::1024     0.226807                       # Ratio of occupied blocks and all blocks, per task id (Ratio)
system.cpu.icache.tags.tagAccesses           85724347                       # Number of tag accesses (Count)
system.cpu.icache.tags.dataAccesses          85724347                       # Number of data accesses (Count)
system.cpu.icache.tags.power_state.pwrStateResidencyTicks::UNDEFINED 882915749000                       # Cumulative time (in ticks) in various power states (Tick)
system.cpu.mmu.dtb.instHits                         0                       # ITB inst hits (Count)
system.cpu.mmu.dtb.instMisses                       0                       # ITB inst misses (Count)
system.cpu.mmu.dtb.readHits                         0                       # DTB read hits (Count)
system.cpu.mmu.dtb.readMisses                       0                       # DTB read misses (Count)
system.cpu.mmu.dtb.writeHits                        0                       # DTB write hits (Count)
system.cpu.mmu.dtb.writeMisses                      0                       # DTB write misses (Count)
system.cpu.mmu.dtb.inserts                          0                       # Number of times an entry is inserted into the TLB (Count)
system.cpu.mmu.dtb.flushTlb                         0                       # Number of times complete TLB was flushed (Count)
system.cpu.mmu.dtb.flushTlbMva                      0                       # Number of times TLB was flushed by MVA (Count)
system.cpu.mmu.dtb.flushTlbMvaAsid                  0                       # Number of times TLB was flushed by MVA & ASID (Count)
system.cpu.mmu.dtb.flushTlbAsid                     0                       # Number of times TLB was flushed by ASID (Count)
system.cpu.mmu.dtb.flushedEntries                   0                       # Number of entries that have been flushed from TLB (Count)
system.cpu.mmu.dtb.alignFaults                      0                       # Number of TLB faults due to alignment restrictions (Count)
system.cpu.mmu.dtb.prefetchFaults                   0                       # Number of TLB faults due to prefetch (Count)
system.cpu.mmu.dtb.domainFaults                     0                       # Number of TLB faults due to domain restrictions (Count)
system.cpu.mmu.dtb.permsFaults                      0                       # Number of TLB faults due to permissions restrictions (Count)
system.cpu.mmu.dtb.readAccesses                     0                       # DTB read accesses (Count)
system.cpu.mmu.dtb.writeAccesses                    0                       # DTB write accesses (Count)
system.cpu.mmu.dtb.instAccesses                     0                       # ITB inst accesses (Count)
system.cpu.mmu.dtb.hits                             0                       # Total TLB (inst and data) hits (Count)
system.cpu.mmu.dtb.misses                           0                       # Total TLB (inst and data) misses (Count)
system.cpu.mmu.dtb.accesses                         0                       # Total TLB (inst and data) accesses (Count)
system.cpu.mmu.dtb_walker.walks                     0                       # Table walker walks requested (Count)
system.cpu.mmu.dtb_walker.requestOrigin_Requested::Data            0                       # Table walker requests started/completed, data/inst (Count)
system.cpu.mmu.dtb_walker.requestOrigin_Requested::Inst            0                       # Table walker requests started/completed, data/inst (Count)
system.cpu.mmu.dtb_walker.requestOrigin_Requested::total            0                       # Table walker requests started/completed, data/inst (Count)
system.cpu.mmu.dtb_walker.requestOrigin_Completed::Data            0                       # Table walker requests started/completed, data/inst (Count)
system.cpu.mmu.dtb_walker.requestOrigin_Completed::Inst            0                       # Table walker requests started/completed, data/inst (Count)
system.cpu.mmu.dtb_walker.requestOrigin_Completed::total            0                       # Table walker requests started/completed, data/inst (Count)
system.cpu.mmu.dtb_walker.requestOrigin::total            0                       # Table walker requests started/completed, data/inst (Count)
system.cpu.mmu.dtb_walker.power_state.pwrStateResidencyTicks::UNDEFINED 882915749000                       # Cumulative time (in ticks) in various power states (Tick)
system.cpu.mmu.itb.instHits                         0                       # ITB inst hits (Count)
system.cpu.mmu.itb.instMisses                       0                       # ITB inst misses (Count)
system.cpu.mmu.itb.readHits                         0                       # DTB read hits (Count)
system.cpu.mmu.itb.readMisses                       0                       # DTB read misses (Count)
system.cpu.mmu.itb.writeHits                        0                       # DTB write hits (Count)
system.cpu.mmu.itb.writeMisses                      0                       # DTB write misses (Count)
system.cpu.mmu.itb.inserts                          0                       # Number of times an entry is inserted into the TLB (Count)
system.cpu.mmu.itb.flushTlb                         0                       # Number of times complete TLB was flushed (Count)
system.cpu.mmu.itb.flushTlbMva                      0                       # Number of times TLB was flushed by MVA (Count)
system.cpu.mmu.itb.flushTlbMvaAsid                  0                       # Number of times TLB was flushed by MVA & ASID (Count)
system.cpu.mmu.itb.flushTlbAsid                     0                       # Number of times TLB was flushed by ASID (Count)
system.cpu.mmu.itb.flushedEntries                   0                       # Number of entries that have been flushed from TLB (Count)
system.cpu.mmu.itb.alignFaults                      0                       # Number of TLB faults due to alignment restrictions (Count)
system.cpu.mmu.itb.prefetchFaults                   0                       # Number of TLB faults due to prefetch (Count)
system.cpu.mmu.itb.domainFaults                     0                       # Number of TLB faults due to domain restrictions (Count)
system.cpu.mmu.itb.permsFaults                      0                       # Number of TLB faults due to permissions restrictions (Count)
system.cpu.mmu.itb.readAccesses                     0                       # DTB read accesses (Count)
system.cpu.mmu.itb.writeAccesses                    0                       # DTB write accesses (Count)
system.cpu.mmu.itb.instAccesses                     0                       # ITB inst accesses (Count)
system.cpu.mmu.itb.hits                             0                       # Total TLB (inst and data) hits (Count)
system.cpu.mmu.itb.misses                           0                       # Total TLB (inst and data) misses (Count)
system.cpu.mmu.itb.accesses                         0                       # Total TLB (inst and data) accesses (Count)
system.cpu.mmu.itb_walker.walks                     0                       # Table walker walks requested (Count)
system.cpu.mmu.itb_walker.requestOrigin_Requested::Data            0                       # Table walker requests started/completed, data/inst (Count)
system.cpu.mmu.itb_walker.requestOrigin_Requested::Inst            0                       # Table walker requests started/completed, data/inst (Count)
system.cpu.mmu.itb_walker.requestOrigin_Requested::total            0                       # Table walker requests started/completed, data/inst (Count)
system.cpu.mmu.itb_walker.requestOrigin_Completed::Data            0                       # Table walker requests started/completed, data/inst (Count)
system.cpu.mmu.itb_walker.requestOrigin_Completed::Inst            0                       # Table walker requests started/completed, data/inst (Count)
system.cpu.mmu.itb_walker.requestOrigin_Completed::total            0                       # Table walker requests started/completed, data/inst (Count)
system.cpu.mmu.itb_walker.requestOrigin::total            0                       # Table walker requests started/completed, data/inst (Count)
system.cpu.mmu.itb_walker.power_state.pwrStateResidencyTicks::UNDEFINED 882915749000                       # Cumulative time (in ticks) in various power states (Tick)
system.cpu.mmu.stage2_dtb.instHits                  0                       # ITB inst hits (Count)
system.cpu.mmu.stage2_dtb.instMisses                0                       # ITB inst misses (Count)
system.cpu.mmu.stage2_dtb.readHits                  0                       # DTB read hits (Count)
system.cpu.mmu.stage2_dtb.readMisses                0                       # DTB read misses (Count)
system.cpu.mmu.stage2_dtb.writeHits                 0                       # DTB write hits (Count)
system.cpu.mmu.stage2_dtb.writeMisses               0                       # DTB write misses (Count)
system.cpu.mmu.stage2_dtb.inserts                   0                       # Number of times an entry is inserted into the TLB (Count)
system.cpu.mmu.stage2_dtb.flushTlb                  0                       # Number of times complete TLB was flushed (Count)
system.cpu.mmu.stage2_dtb.flushTlbMva               0                       # Number of times TLB was flushed by MVA (Count)
system.cpu.mmu.stage2_dtb.flushTlbMvaAsid            0                       # Number of times TLB was flushed by MVA & ASID (Count)
system.cpu.mmu.stage2_dtb.flushTlbAsid              0                       # Number of times TLB was flushed by ASID (Count)
system.cpu.mmu.stage2_dtb.flushedEntries            0                       # Number of entries that have been flushed from TLB (Count)
system.cpu.mmu.stage2_dtb.alignFaults               0                       # Number of TLB faults due to alignment restrictions (Count)
system.cpu.mmu.stage2_dtb.prefetchFaults            0                       # Number of TLB faults due to prefetch (Count)
system.cpu.mmu.stage2_dtb.domainFaults              0                       # Number of TLB faults due to domain restrictions (Count)
system.cpu.mmu.stage2_dtb.permsFaults               0                       # Number of TLB faults due to permissions restrictions (Count)
system.cpu.mmu.stage2_dtb.readAccesses              0                       # DTB read accesses (Count)
system.cpu.mmu.stage2_dtb.writeAccesses             0                       # DTB write accesses (Count)
system.cpu.mmu.stage2_dtb.instAccesses              0                       # ITB inst accesses (Count)
system.cpu.mmu.stage2_dtb.hits                      0                       # Total TLB (inst and data) hits (Count)
system.cpu.mmu.stage2_dtb.misses                    0                       # Total TLB (inst and data) misses (Count)
system.cpu.mmu.stage2_dtb.accesses                  0                       # Total TLB (inst and data) accesses (Count)
system.cpu.mmu.stage2_dtb_walker.walks              0                       # Table walker walks requested (Count)
system.cpu.mmu.stage2_dtb_walker.requestOrigin_Requested::Data            0                       # Table walker requests started/completed, data/inst (Count)
system.cpu.mmu.stage2_dtb_walker.requestOrigin_Requested::Inst            0                       # Table walker requests started/completed, data/inst (Count)
system.cpu.mmu.stage2_dtb_walker.requestOrigin_Requested::total            0                       # Table walker requests started/completed, data/inst (Count)
system.cpu.mmu.stage2_dtb_walker.requestOrigin_Completed::Data            0                       # Table walker requests started/completed, data/inst (Count)
system.cpu.mmu.stage2_dtb_walker.requestOrigin_Completed::Inst            0                       # Table walker requests started/completed, data/inst (Count)
system.cpu.mmu.stage2_dtb_walker.requestOrigin_Completed::total            0                       # Table walker requests started/completed, data/inst (Count)
system.cpu.mmu.stage2_dtb_walker.requestOrigin::total            0                       # Table walker requests started/completed, data/inst (Count)
system.cpu.mmu.stage2_dtb_walker.power_state.pwrStateResidencyTicks::UNDEFINED 882915749000                       # Cumulative time (in ticks) in various power states (Tick)
system.cpu.mmu.stage2_itb.instHits                  0                       # ITB inst hits (Count)
system.cpu.mmu.stage2_itb.instMisses                0                       # ITB inst misses (Count)
system.cpu.mmu.stage2_itb.readHits                  0                       # DTB read hits (Count)
system.cpu.mmu.stage2_itb.readMisses                0                       # DTB read misses (Count)
system.cpu.mmu.stage2_itb.writeHits                 0                       # DTB write hits (Count)
system.cpu.mmu.stage2_itb.writeMisses               0                       # DTB write misses (Count)
system.cpu.mmu.stage2_itb.inserts                   0                       # Number of times an entry is inserted into the TLB (Count)
system.cpu.mmu.stage2_itb.flushTlb                  0                       # Number of times complete TLB was flushed (Count)
system.cpu.mmu.stage2_itb.flushTlbMva               0                       # Number of times TLB was flushed by MVA (Count)
system.cpu.mmu.stage2_itb.flushTlbMvaAsid            0                       # Number of times TLB was flushed by MVA & ASID (Count)
system.cpu.mmu.stage2_itb.flushTlbAsid              0                       # Number of times TLB was flushed by ASID (Count)
system.cpu.mmu.stage2_itb.flushedEntries            0                       # Number of entries that have been flushed from TLB (Count)
system.cpu.mmu.stage2_itb.alignFaults               0                       # Number of TLB faults due to alignment restrictions (Count)
system.cpu.mmu.stage2_itb.prefetchFaults            0                       # Number of TLB faults due to prefetch (Count)
system.cpu.mmu.stage2_itb.domainFaults              0                       # Number of TLB faults due to domain restrictions (Count)
system.cpu.mmu.stage2_itb.permsFaults               0                       # Number of TLB faults due to permissions restrictions (Count)
system.cpu.mmu.stage2_itb.readAccesses              0                       # DTB read accesses (Count)
system.cpu.mmu.stage2_itb.writeAccesses             0                       # DTB write accesses (Count)
system.cpu.mmu.stage2_itb.instAccesses              0                       # ITB inst accesses (Count)
system.cpu.mmu.stage2_itb.hits                      0                       # Total TLB (inst and data) hits (Count)
system.cpu.mmu.stage2_itb.misses                    0                       # Total TLB (inst and data) misses (Count)
system.cpu.mmu.stage2_itb.accesses                  0                       # Total TLB (inst and data) accesses (Count)
system.cpu.mmu.stage2_itb_walker.walks              0                       # Table walker walks requested (Count)
system.cpu.mmu.stage2_itb_walker.requestOrigin_Requested::Data            0                       # Table walker requests started/completed, data/inst (Count)
system.cpu.mmu.stage2_itb_walker.requestOrigin_Requested::Inst            0                       # Table walker requests started/completed, data/inst (Count)
system.cpu.mmu.stage2_itb_walker.requestOrigin_Requested::total            0                       # Table walker requests started/completed, data/inst (Count)
system.cpu.mmu.stage2_itb_walker.requestOrigin_Completed::Data            0                       # Table walker requests started/completed, data/inst (Count)
system.cpu.mmu.stage2_itb_walker.requestOrigin_Completed::Inst            0                       # Table walker requests started/completed, data/inst (Count)
system.cpu.mmu.stage2_itb_walker.requestOrigin_Completed::total            0                       # Table walker requests started/completed, data/inst (Count)
system.cpu.mmu.stage2_itb_walker.requestOrigin::total            0                       # Table walker requests started/completed, data/inst (Count)
system.cpu.mmu.stage2_itb_walker.power_state.pwrStateResidencyTicks::UNDEFINED 882915749000                       # Cumulative time (in ticks) in various power states (Tick)
system.cpu.power_state.pwrStateResidencyTicks::ON 882915749000                       # Cumulative time (in ticks) in various power states (Tick)
system.cpu.thread_0.numInsts                100000000                       # Number of Instructions committed (Count)
system.cpu.thread_0.numOps                  184220346                       # Number of Ops committed (Count)
system.cpu.thread_0.numMemRefs                      0                       # Number of Memory References (Count)
system.cpu.workload.numSyscalls                    19                       # Number of system calls (Count)
system.cpu_clk_domain.clock                       500                       # Clock period in ticks (Tick)
system.cpu_voltage_domain.voltage                   1                       # Voltage in Volts (Volt)
system.l2.demandHits::cpu.inst                     26                       # number of demand (read+write) hits (Count)
system.l2.demandHits::cpu.data                     40                       # number of demand (read+write) hits (Count)
system.l2.demandHits::total                        66                       # number of demand (read+write) hits (Count)
system.l2.overallHits::cpu.inst                    26                       # number of overall hits (Count)
system.l2.overallHits::cpu.data                    40                       # number of overall hits (Count)
system.l2.overallHits::total                       66                       # number of overall hits (Count)
system.l2.demandMisses::cpu.inst                  903                       # number of demand (read+write) misses (Count)
system.l2.demandMisses::cpu.data             10526319                       # number of demand (read+write) misses (Count)
system.l2.demandMisses::total                10527222                       # number of demand (read+write) misses (Count)
system.l2.overallMisses::cpu.inst                 903                       # number of overall misses (Count)
system.l2.overallMisses::cpu.data            10526319                       # number of overall misses (Count)
system.l2.overallMisses::total               10527222                       # number of overall misses (Count)
system.l2.demandMissLatency::cpu.inst        70519000                       # number of demand (read+write) miss ticks (Tick)
system.l2.demandMissLatency::cpu.data    811639450500                       # number of demand (read+write) miss ticks (Tick)
system.l2.demandMissLatency::total       811709969500                       # number of demand (read+write) miss ticks (Tick)
system.l2.overallMissLatency::cpu.inst       70519000                       # number of overall miss ticks (Tick)
system.l2.overallMissLatency::cpu.data   811639450500                       # number of overall miss ticks (Tick)
system.l2.overallMissLatency::total      811709969500                       # number of overall miss ticks (Tick)
system.l2.demandAccesses::cpu.inst                929                       # number of demand (read+write) accesses (Count)
system.l2.demandAccesses::cpu.data           10526359                       # number of demand (read+write) accesses (Count)
system.l2.demandAccesses::total              10527288                       # number of demand (read+write) accesses (Count)
system.l2.overallAccesses::cpu.inst               929                       # number of overall (read+write) accesses (Count)
system.l2.overallAccesses::cpu.data          10526359                       # number of overall (read+write) accesses (Count)
system.l2.overallAccesses::total             10527288                       # number of overall (read+write) accesses (Count)
system.l2.demandMissRate::cpu.inst           0.972013                       # miss rate for demand accesses (Ratio)
system.l2.demandMissRate::cpu.data           0.999996                       # miss rate for demand accesses (Ratio)
system.l2.demandMissRate::total              0.999994                       # miss rate for demand accesses (Ratio)
system.l2.overallMissRate::cpu.inst          0.972013                       # miss rate for overall accesses (Ratio)
system.l2.overallMissRate::cpu.data          0.999996                       # miss rate for overall accesses (Ratio)
system.l2.overallMissRate::total             0.999994                       # miss rate for overall accesses (Ratio)
system.l2.demandAvgMissLatency::cpu.inst 78094.130676                       # average overall miss latency ((Cycle/Count))
system.l2.demandAvgMissLatency::cpu.data 77105.724280                       # average overall miss latency ((Cycle/Count))
system.l2.demandAvgMissLatency::total    77105.809063                       # average overall miss latency ((Cycle/Count))
system.l2.overallAvgMissLatency::cpu.inst 78094.130676                       # average overall miss latency ((Cycle/Count))
system.l2.overallAvgMissLatency::cpu.data 77105.724280                       # average overall miss latency ((Cycle/Count))
system.l2.overallAvgMissLatency::total   77105.809063                       # average overall miss latency ((Cycle/Count))
system.l2.blockedCycles::no_mshrs                   0                       # number of cycles access was blocked (Cycle)
system.l2.blockedCycles::no_targets                 0                       # number of cycles access was blocked (Cycle)
system.l2.blockedCauses::no_mshrs                   0                       # number of times access was blocked (Count)
system.l2.blockedCauses::no_targets                 0                       # number of times access was blocked (Count)
system.l2.avgBlocked::no_mshrs                    nan                       # average number of cycles each access was blocked ((Cycle/Count))
system.l2.avgBlocked::no_targets                  nan                       # average number of cycles each access was blocked ((Cycle/Count))
system.l2.writebacks::writebacks             10493183                       # number of writebacks (Count)
system.l2.writebacks::total                  10493183                       # number of writebacks (Count)
system.l2.demandMshrHits::cpu.inst                  1                       # number of demand (read+write) MSHR hits (Count)
system.l2.demandMshrHits::cpu.data                  5                       # number of demand (read+write) MSHR hits (Count)
system.l2.demandMshrHits::total                     6                       # number of demand (read+write) MSHR hits (Count)
system.l2.overallMshrHits::cpu.inst                 1                       # number of overall MSHR hits (Count)
system.l2.overallMshrHits::cpu.data                 5                       # number of overall MSHR hits (Count)
system.l2.overallMshrHits::total                    6                       # number of overall MSHR hits (Count)
system.l2.demandMshrMisses::cpu.inst              902                       # number of demand (read+write) MSHR misses (Count)
system.l2.demandMshrMisses::cpu.data         10526314                       # number of demand (read+write) MSHR misses (Count)
system.l2.demandMshrMisses::total            10527216                       # number of demand (read+write) MSHR misses (Count)
system.l2.overallMshrMisses::cpu.inst             902                       # number of overall MSHR misses (Count)
system.l2.overallMshrMisses::cpu.data        10526314                       # number of overall MSHR misses (Count)
system.l2.overallMshrMisses::total           10527216                       # number of overall MSHR misses (Count)
system.l2.demandMshrMissLatency::cpu.inst     61440500                       # number of demand (read+write) MSHR miss ticks (Tick)
system.l2.demandMshrMissLatency::cpu.data 706375990000                       # number of demand (read+write) MSHR miss ticks (Tick)
system.l2.demandMshrMissLatency::total   706437430500                       # number of demand (read+write) MSHR miss ticks (Tick)
system.l2.overallMshrMissLatency::cpu.inst     61440500                       # number of overall MSHR miss ticks (Tick)
system.l2.overallMshrMissLatency::cpu.data 706375990000                       # number of overall MSHR miss ticks (Tick)
system.l2.overallMshrMissLatency::total  706437430500                       # number of overall MSHR miss ticks (Tick)
system.l2.demandMshrMissRate::cpu.inst       0.970936                       # mshr miss ratio for demand accesses (Ratio)
system.l2.demandMshrMissRate::cpu.data       0.999996                       # mshr miss ratio for demand accesses (Ratio)
system.l2.demandMshrMissRate::total          0.999993                       # mshr miss ratio for demand accesses (Ratio)
system.l2.overallMshrMissRate::cpu.inst      0.970936                       # mshr miss ratio for overall accesses (Ratio)
system.l2.overallMshrMissRate::cpu.data      0.999996                       # mshr miss ratio for overall accesses (Ratio)
system.l2.overallMshrMissRate::total         0.999993                       # mshr miss ratio for overall accesses (Ratio)
system.l2.demandAvgMshrMissLatency::cpu.inst 68115.853659                       # average overall mshr miss latency ((Cycle/Count))
system.l2.demandAvgMshrMissLatency::cpu.data 67105.730458                       # average overall mshr miss latency ((Cycle/Count))
system.l2.demandAvgMshrMissLatency::total 67105.817008                       # average overall mshr miss latency ((Cycle/Count))
system.l2.overallAvgMshrMissLatency::cpu.inst 68115.853659                       # average overall mshr miss latency ((Cycle/Count))
system.l2.overallAvgMshrMissLatency::cpu.data 67105.730458                       # average overall mshr miss latency ((Cycle/Count))
system.l2.overallAvgMshrMissLatency::total 67105.817008                       # average overall mshr miss latency ((Cycle/Count))
system.l2.replacements                       10494449                       # number of replacements (Count)
system.l2.InvalidateReq.misses::cpu.data            2                       # number of InvalidateReq misses (Count)
system.l2.InvalidateReq.misses::total               2                       # number of InvalidateReq misses (Count)
system.l2.InvalidateReq.accesses::cpu.data            2                       # number of InvalidateReq accesses(hits+misses) (Count)
system.l2.InvalidateReq.accesses::total             2                       # number of InvalidateReq accesses(hits+misses) (Count)
system.l2.InvalidateReq.missRate::cpu.data            1                       # miss rate for InvalidateReq accesses (Ratio)
system.l2.InvalidateReq.missRate::total             1                       # miss rate for InvalidateReq accesses (Ratio)
system.l2.InvalidateReq.mshrMisses::cpu.data            2                       # number of InvalidateReq MSHR misses (Count)
system.l2.InvalidateReq.mshrMisses::total            2                       # number of InvalidateReq MSHR misses (Count)
system.l2.InvalidateReq.mshrMissLatency::cpu.data        39000                       # number of InvalidateReq MSHR miss ticks (Tick)
system.l2.InvalidateReq.mshrMissLatency::total        39000                       # number of InvalidateReq MSHR miss ticks (Tick)
system.l2.InvalidateReq.mshrMissRate::cpu.data            1                       # mshr miss rate for InvalidateReq accesses (Ratio)
system.l2.InvalidateReq.mshrMissRate::total            1                       # mshr miss rate for InvalidateReq accesses (Ratio)
system.l2.InvalidateReq.avgMshrMissLatency::cpu.data        19500                       # average InvalidateReq mshr miss latency ((Tick/Count))
system.l2.InvalidateReq.avgMshrMissLatency::total        19500                       # average InvalidateReq mshr miss latency ((Tick/Count))
system.l2.ReadCleanReq.hits::cpu.inst              26                       # number of ReadCleanReq hits (Count)
system.l2.ReadCleanReq.hits::total                 26                       # number of ReadCleanReq hits (Count)
system.l2.ReadCleanReq.misses::cpu.inst           903                       # number of ReadCleanReq misses (Count)
system.l2.ReadCleanReq.misses::total              903                       # number of ReadCleanReq misses (Count)
system.l2.ReadCleanReq.missLatency::cpu.inst     70519000                       # number of ReadCleanReq miss ticks (Tick)
system.l2.ReadCleanReq.missLatency::total     70519000                       # number of ReadCleanReq miss ticks (Tick)
system.l2.ReadCleanReq.accesses::cpu.inst          929                       # number of ReadCleanReq accesses(hits+misses) (Count)
system.l2.ReadCleanReq.accesses::total            929                       # number of ReadCleanReq accesses(hits+misses) (Count)
system.l2.ReadCleanReq.missRate::cpu.inst     0.972013                       # miss rate for ReadCleanReq accesses (Ratio)
system.l2.ReadCleanReq.missRate::total       0.972013                       # miss rate for ReadCleanReq accesses (Ratio)
system.l2.ReadCleanReq.avgMissLatency::cpu.inst 78094.130676                       # average ReadCleanReq miss latency ((Tick/Count))
system.l2.ReadCleanReq.avgMissLatency::total 78094.130676                       # average ReadCleanReq miss latency ((Tick/Count))
system.l2.ReadCleanReq.mshrHits::cpu.inst            1                       # number of ReadCleanReq MSHR hits (Count)
system.l2.ReadCleanReq.mshrHits::total              1                       # number of ReadCleanReq MSHR hits (Count)
system.l2.ReadCleanReq.mshrMisses::cpu.inst          902                       # number of ReadCleanReq MSHR misses (Count)
system.l2.ReadCleanReq.mshrMisses::total          902                       # number of ReadCleanReq MSHR misses (Count)
system.l2.ReadCleanReq.mshrMissLatency::cpu.inst     61440500                       # number of ReadCleanReq MSHR miss ticks (Tick)
system.l2.ReadCleanReq.mshrMissLatency::total     61440500                       # number of ReadCleanReq MSHR miss ticks (Tick)
system.l2.ReadCleanReq.mshrMissRate::cpu.inst     0.970936                       # mshr miss rate for ReadCleanReq accesses (Ratio)
system.l2.ReadCleanReq.mshrMissRate::total     0.970936                       # mshr miss rate for ReadCleanReq accesses (Ratio)
system.l2.ReadCleanReq.avgMshrMissLatency::cpu.inst 68115.853659                       # average ReadCleanReq mshr miss latency ((Tick/Count))
system.l2.ReadCleanReq.avgMshrMissLatency::total 68115.853659                       # average ReadCleanReq mshr miss latency ((Tick/Count))
system.l2.ReadExReq.hits::cpu.data                  7                       # number of ReadExReq hits (Count)
system.l2.ReadExReq.hits::total                     7                       # number of ReadExReq hits (Count)
system.l2.ReadExReq.misses::cpu.data         10525910                       # number of ReadExReq misses (Count)
system.l2.ReadExReq.misses::total            10525910                       # number of ReadExReq misses (Count)
system.l2.ReadExReq.missLatency::cpu.data 811605502000                       # number of ReadExReq miss ticks (Tick)
system.l2.ReadExReq.missLatency::total   811605502000                       # number of ReadExReq miss ticks (Tick)
system.l2.ReadExReq.accesses::cpu.data       10525917                       # number of ReadExReq accesses(hits+misses) (Count)
system.l2.ReadExReq.accesses::total          10525917                       # number of ReadExReq accesses(hits+misses) (Count)
system.l2.ReadExReq.missRate::cpu.data       0.999999                       # miss rate for ReadExReq accesses (Ratio)
system.l2.ReadExReq.missRate::total          0.999999                       # miss rate for ReadExReq accesses (Ratio)
system.l2.ReadExReq.avgMissLatency::cpu.data 77105.495107                       # average ReadExReq miss latency ((Tick/Count))
system.l2.ReadExReq.avgMissLatency::total 77105.495107                       # average ReadExReq miss latency ((Tick/Count))
system.l2.ReadExReq.mshrMisses::cpu.data     10525910                       # number of ReadExReq MSHR misses (Count)
system.l2.ReadExReq.mshrMisses::total        10525910                       # number of ReadExReq MSHR misses (Count)
system.l2.ReadExReq.mshrMissLatency::cpu.data 706346412000                       # number of ReadExReq MSHR miss ticks (Tick)
system.l2.ReadExReq.mshrMissLatency::total 706346412000                       # number of ReadExReq MSHR miss ticks (Tick)
system.l2.ReadExReq.mshrMissRate::cpu.data     0.999999                       # mshr miss rate for ReadExReq accesses (Ratio)
system.l2.ReadExReq.mshrMissRate::total      0.999999                       # mshr miss rate for ReadExReq accesses (Ratio)
system.l2.ReadExReq.avgMshrMissLatency::cpu.data 67105.496057                       # average ReadExReq mshr miss latency ((Tick/Count))
system.l2.ReadExReq.avgMshrMissLatency::total 67105.496057                       # average ReadExReq mshr miss latency ((Tick/Count))
system.l2.ReadSharedReq.hits::cpu.data             33                       # number of ReadSharedReq hits (Count)
system.l2.ReadSharedReq.hits::total                33                       # number of ReadSharedReq hits (Count)
system.l2.ReadSharedReq.misses::cpu.data          409                       # number of ReadSharedReq misses (Count)
system.l2.ReadSharedReq.misses::total             409                       # number of ReadSharedReq misses (Count)
system.l2.ReadSharedReq.missLatency::cpu.data     33948500                       # number of ReadSharedReq miss ticks (Tick)
system.l2.ReadSharedReq.missLatency::total     33948500                       # number of ReadSharedReq miss ticks (Tick)
system.l2.ReadSharedReq.accesses::cpu.data          442                       # number of ReadSharedReq accesses(hits+misses) (Count)
system.l2.ReadSharedReq.accesses::total           442                       # number of ReadSharedReq accesses(hits+misses) (Count)
system.l2.ReadSharedReq.missRate::cpu.data     0.925339                       # miss rate for ReadSharedReq accesses (Ratio)
system.l2.ReadSharedReq.missRate::total      0.925339                       # miss rate for ReadSharedReq accesses (Ratio)
system.l2.ReadSharedReq.avgMissLatency::cpu.data 83003.667482                       # average ReadSharedReq miss latency ((Tick/Count))
system.l2.ReadSharedReq.avgMissLatency::total 83003.667482                       # average ReadSharedReq miss latency ((Tick/Count))
system.l2.ReadSharedReq.mshrHits::cpu.data            5                       # number of ReadSharedReq MSHR hits (Count)
system.l2.ReadSharedReq.mshrHits::total             5                       # number of ReadSharedReq MSHR hits (Count)
system.l2.ReadSharedReq.mshrMisses::cpu.data          404                       # number of ReadSharedReq MSHR misses (Count)
system.l2.ReadSharedReq.mshrMisses::total          404                       # number of ReadSharedReq MSHR misses (Count)
system.l2.ReadSharedReq.mshrMissLatency::cpu.data     29578000                       # number of ReadSharedReq MSHR miss ticks (Tick)
system.l2.ReadSharedReq.mshrMissLatency::total     29578000                       # number of ReadSharedReq MSHR miss ticks (Tick)
system.l2.ReadSharedReq.mshrMissRate::cpu.data     0.914027                       # mshr miss rate for ReadSharedReq accesses (Ratio)
system.l2.ReadSharedReq.mshrMissRate::total     0.914027                       # mshr miss rate for ReadSharedReq accesses (Ratio)
system.l2.ReadSharedReq.avgMshrMissLatency::cpu.data 73212.871287                       # average ReadSharedReq mshr miss latency ((Tick/Count))
system.l2.ReadSharedReq.avgMshrMissLatency::total 73212.871287                       # average ReadSharedReq mshr miss latency ((Tick/Count))
system.l2.WritebackDirty.hits::writebacks     10521872                       # number of WritebackDirty hits (Count)
system.l2.WritebackDirty.hits::total         10521872                       # number of WritebackDirty hits (Count)
system.l2.WritebackDirty.accesses::writebacks     10521872                       # number of WritebackDirty accesses(hits+misses) (Count)
system.l2.WritebackDirty.accesses::total     10521872                       # number of WritebackDirty accesses(hits+misses) (Count)
system.l2.power_state.pwrStateResidencyTicks::UNDEFINED 882915749000                       # Cumulative time (in ticks) in various power states (Tick)
system.l2.tags.tagsInUse                 32633.315313                       # Average ticks per tags in use ((Tick/Count))
system.l2.tags.totalRefs                     21049489                       # Total number of references to valid blocks. (Count)
system.l2.tags.sampledRefs                   10527217                       # Sample count of references to valid blocks. (Count)
system.l2.tags.avgRefs                       1.999530                       # Average number of references to valid blocks. ((Count/Count))
system.l2.tags.warmupTick                       77000                       # The tick when the warmup percentage was hit. (Tick)
system.l2.tags.occupancies::writebacks       0.004948                       # Average occupied blocks per tick, per requestor ((Count/Tick))
system.l2.tags.occupancies::cpu.inst         3.797233                       # Average occupied blocks per tick, per requestor ((Count/Tick))
system.l2.tags.occupancies::cpu.data     32629.513132                       # Average occupied blocks per tick, per requestor ((Count/Tick))
system.l2.tags.avgOccs::writebacks           0.000000                       # Average percentage of cache occupancy ((Ratio/Tick))
system.l2.tags.avgOccs::cpu.inst             0.000116                       # Average percentage of cache occupancy ((Ratio/Tick))
system.l2.tags.avgOccs::cpu.data             0.995774                       # Average percentage of cache occupancy ((Ratio/Tick))
system.l2.tags.avgOccs::total                0.995890                       # Average percentage of cache occupancy ((Ratio/Tick))
system.l2.tags.occupanciesTaskId::1024          32768                       # Occupied blocks per task id (Count)
system.l2.tags.ageTaskId_1024::0                  116                       # Occupied blocks per task id, per block age (Count)
system.l2.tags.ageTaskId_1024::1                 1079                       # Occupied blocks per task id, per block age (Count)
system.l2.tags.ageTaskId_1024::2                10758                       # Occupied blocks per task id, per block age (Count)
system.l2.tags.ageTaskId_1024::3                20815                       # Occupied blocks per task id, per block age (Count)
[...]
system.mem_ctrls.dram.perBankWrBursts::10       327816                       # Per bank write bursts (Count)
system.mem_ctrls.dram.perBankWrBursts::11       327816                       # Per bank write bursts (Count)
system.mem_ctrls.dram.perBankWrBursts::12       327950                       # Per bank write bursts (Count)
system.mem_ctrls.dram.perBankWrBursts::13       327990                       # Per bank write bursts (Count)
system.mem_ctrls.dram.perBankWrBursts::14       327931                       # Per bank write bursts (Count)
system.mem_ctrls.dram.perBankWrBursts::15       327946                       # Per bank write bursts (Count)
system.mem_ctrls.dram.totQLat             79902312500                       # Total ticks spent queuing (Tick)
system.mem_ctrls.dram.totBusLat           52636075000                       # Total ticks spent in databus transfers (Tick)
system.mem_ctrls.dram.totMemAccLat       277287593750                       # Total ticks spent from burst creation until serviced by the DRAM (Tick)
system.mem_ctrls.dram.avgQLat                 7590.07                       # Average queueing delay per DRAM burst ((Tick/Count))
system.mem_ctrls.dram.avgBusLat               5000.00                       # Average bus latency per DRAM burst ((Tick/Count))
system.mem_ctrls.dram.avgMemAccLat           26340.07                       # Average memory access latency per DRAM burst ((Tick/Count))
system.mem_ctrls.dram.readRowHits             9735955                       # Number of row buffer hits during reads (Count)
system.mem_ctrls.dram.writeRowHits            4868280                       # Number of row buffer hits during writes (Count)
system.mem_ctrls.dram.readRowHitRate            92.48                       # Row buffer hit rate for reads (Ratio)
system.mem_ctrls.dram.writeRowHitRate           92.78                       # Row buffer hit rate for writes (Ratio)
system.mem_ctrls.dram.bytesPerActivate::samples      1170285                       # Bytes accessed per row activation (Byte)
system.mem_ctrls.dram.bytesPerActivate::mean   862.668878                       # Bytes accessed per row activation (Byte)
system.mem_ctrls.dram.bytesPerActivate::gmean   756.060224                       # Bytes accessed per row activation (Byte)
system.mem_ctrls.dram.bytesPerActivate::stdev   292.708944                       # Bytes accessed per row activation (Byte)
system.mem_ctrls.dram.bytesPerActivate::0-127        31226      2.67%      2.67% # Bytes accessed per row activation (Byte)
system.mem_ctrls.dram.bytesPerActivate::128-255        72577      6.20%      8.87% # Bytes accessed per row activation (Byte)
system.mem_ctrls.dram.bytesPerActivate::256-383        36115      3.09%     11.96% # Bytes accessed per row activation (Byte)
system.mem_ctrls.dram.bytesPerActivate::384-511        32281      2.76%     14.71% # Bytes accessed per row activation (Byte)
system.mem_ctrls.dram.bytesPerActivate::512-639        44423      3.80%     18.51% # Bytes accessed per row activation (Byte)
system.mem_ctrls.dram.bytesPerActivate::640-767        39041      3.34%     21.85% # Bytes accessed per row activation (Byte)
system.mem_ctrls.dram.bytesPerActivate::768-895        52708      4.50%     26.35% # Bytes accessed per row activation (Byte)
system.mem_ctrls.dram.bytesPerActivate::896-1023        57414      4.91%     31.26% # Bytes accessed per row activation (Byte)
system.mem_ctrls.dram.bytesPerActivate::1024-1151       804500     68.74%    100.00% # Bytes accessed per row activation (Byte)
system.mem_ctrls.dram.bytesPerActivate::total      1170285                       # Bytes accessed per row activation (Byte)
system.mem_ctrls.dram.bytesRead             673741760                       # Total number of bytes read from DRAM (Byte)
system.mem_ctrls.dram.bytesWritten          335827584                       # Total number of bytes written to DRAM (Byte)
system.mem_ctrls.dram.avgRdBW              763.087260                       # Average DRAM read bandwidth in MiBytes/s ((Byte/Second))
system.mem_ctrls.dram.avgWrBW              380.361982                       # Average DRAM write bandwidth in MiBytes/s ((Byte/Second))
system.mem_ctrls.dram.peakBW                 12800.00                       # Theoretical peak bandwidth in MiByte/s ((Byte/Second))
system.mem_ctrls.dram.busUtil                    8.93                       # Data bus utilization in percentage (Ratio)
system.mem_ctrls.dram.busUtilRead                5.96                       # Data bus utilization in percentage for reads (Ratio)
system.mem_ctrls.dram.busUtilWrite               2.97                       # Data bus utilization in percentage for writes (Ratio)
system.mem_ctrls.dram.pageHitRate               92.58                       # Row buffer hit rate, read and write combined (Ratio)
system.mem_ctrls.dram.power_state.pwrStateResidencyTicks::UNDEFINED 882915749000                       # Cumulative time (in ticks) in various power states (Tick)
system.mem_ctrls.dram.rank0.actEnergy      4178320860                       # Energy for activate commands per rank (pJ) (Joule)
system.mem_ctrls.dram.rank0.preEnergy      2220826410                       # Energy for precharge commands per rank (pJ) (Joule)
system.mem_ctrls.dram.rank0.readEnergy    37587773160                       # Energy for read commands per rank (pJ) (Joule)
system.mem_ctrls.dram.rank0.writeEnergy   13697786340                       # Energy for write commands per rank (pJ) (Joule)
system.mem_ctrls.dram.rank0.refreshEnergy 69696488160.000015                       # Energy for refresh commands per rank (pJ) (Joule)
system.mem_ctrls.dram.rank0.actBackEnergy 202975539090                       # Energy for active background per rank (pJ) (Joule)
system.mem_ctrls.dram.rank0.preBackEnergy 168112878240                       # Energy for precharge background per rank (pJ) (Joule)
system.mem_ctrls.dram.rank0.actPowerDownEnergy            0                       # Energy for active power-down per rank (pJ) (Joule)
system.mem_ctrls.dram.rank0.prePowerDownEnergy            0                       # Energy for precharge power-down per rank (pJ) (Joule)
system.mem_ctrls.dram.rank0.selfRefreshEnergy            0                       # Energy for self refresh per rank (pJ) (Joule)
system.mem_ctrls.dram.rank0.totalEnergy  498469612260                       # Total energy per rank (pJ) (Joule)
system.mem_ctrls.dram.rank0.averagePower   564.572116                       # Core power per rank (mW) (Watt)
system.mem_ctrls.dram.rank0.totalIdleTime            0                       # Total Idle time Per DRAM Rank (Tick)
system.mem_ctrls.dram.rank0.pwrStateTime::IDLE 430355377750                       # Time in different power states (Tick)
system.mem_ctrls.dram.rank0.pwrStateTime::REF  29482440000                       # Time in different power states (Tick)
system.mem_ctrls.dram.rank0.pwrStateTime::SREF            0                       # Time in different power states (Tick)
system.mem_ctrls.dram.rank0.pwrStateTime::PRE_PDN            0                       # Time in different power states (Tick)
system.mem_ctrls.dram.rank0.pwrStateTime::ACT 423077931250                       # Time in different power states (Tick)
system.mem_ctrls.dram.rank0.pwrStateTime::ACT_PDN            0                       # Time in different power states (Tick)
system.mem_ctrls.dram.rank1.actEnergy      4177521180                       # Energy for activate commands per rank (pJ) (Joule)
system.mem_ctrls.dram.rank1.preEnergy      2220405165                       # Energy for precharge commands per rank (pJ) (Joule)
system.mem_ctrls.dram.rank1.readEnergy    37576541940                       # Energy for read commands per rank (pJ) (Joule)
system.mem_ctrls.dram.rank1.writeEnergy   13693150980                       # Energy for write commands per rank (pJ) (Joule)
system.mem_ctrls.dram.rank1.refreshEnergy 69696488160.000015                       # Energy for refresh commands per rank (pJ) (Joule)
system.mem_ctrls.dram.rank1.actBackEnergy 202947708840                       # Energy for active background per rank (pJ) (Joule)
system.mem_ctrls.dram.rank1.preBackEnergy 168136314240                       # Energy for precharge background per rank (pJ) (Joule)
system.mem_ctrls.dram.rank1.actPowerDownEnergy            0                       # Energy for active power-down per rank (pJ) (Joule)
system.mem_ctrls.dram.rank1.prePowerDownEnergy            0                       # Energy for precharge power-down per rank (pJ) (Joule)
system.mem_ctrls.dram.rank1.selfRefreshEnergy            0                       # Energy for self refresh per rank (pJ) (Joule)
system.mem_ctrls.dram.rank1.totalEnergy  498448130505                       # Total energy per rank (pJ) (Joule)
system.mem_ctrls.dram.rank1.averagePower   564.547785                       # Core power per rank (mW) (Watt)
system.mem_ctrls.dram.rank1.totalIdleTime            0                       # Total Idle time Per DRAM Rank (Tick)
system.mem_ctrls.dram.rank1.pwrStateTime::IDLE 430414627500                       # Time in different power states (Tick)
system.mem_ctrls.dram.rank1.pwrStateTime::REF  29482440000                       # Time in different power states (Tick)
system.mem_ctrls.dram.rank1.pwrStateTime::SREF            0                       # Time in different power states (Tick)
system.mem_ctrls.dram.rank1.pwrStateTime::PRE_PDN            0                       # Time in different power states (Tick)
system.mem_ctrls.dram.rank1.pwrStateTime::ACT 423018681500                       # Time in different power states (Tick)
system.mem_ctrls.dram.rank1.pwrStateTime::ACT_PDN            0                       # Time in different power states (Tick)
system.mem_ctrls.power_state.pwrStateResidencyTicks::UNDEFINED 882915749000                       # Cumulative time (in ticks) in various power states (Tick)
system.membus.transDist::ReadResp                1306                       # Transaction distribution (Count)
system.membus.transDist::WritebackDirty      10493183                       # Transaction distribution (Count)
system.membus.transDist::CleanEvict               327                       # Transaction distribution (Count)
system.membus.transDist::ReadExReq           10525909                       # Transaction distribution (Count)
system.membus.transDist::ReadExResp          10525909                       # Transaction distribution (Count)
system.membus.transDist::ReadSharedReq           1306                       # Transaction distribution (Count)
system.membus.transDist::InvalidateReq              2                       # Transaction distribution (Count)
system.membus.pktCount_system.l2.mem_side_port::system.mem_ctrls.port     31547942                       # Packet count per connected requestor and responder (Count)
system.membus.pktCount::total                31547942                       # Packet count per connected requestor and responder (Count)
system.membus.pktSize_system.l2.mem_side_port::system.mem_ctrls.port    672652736                       # Cumulative packet size per connected requestor and responder (Byte)
system.membus.pktSize::total                672652736                       # Cumulative packet size per connected requestor and responder (Byte)
system.membus.snoops                                0                       # Total snoops (Count)
system.membus.snoopTraffic                          0                       # Total snoop traffic (Byte)
system.membus.snoopFanout::samples           10527217                       # Request fanout histogram
system.membus.snoopFanout::mean                     0                       # Request fanout histogram
system.membus.snoopFanout::stdev                    0                       # Request fanout histogram
system.membus.snoopFanout::underflows               0      0.00%      0.00% # Request fanout histogram
system.membus.snoopFanout::0                 10527217    100.00%    100.00% # Request fanout histogram
system.membus.snoopFanout::1                        0      0.00%    100.00% # Request fanout histogram
system.membus.snoopFanout::overflows                0      0.00%    100.00% # Request fanout histogram
system.membus.snoopFanout::min_value                0                       # Request fanout histogram
system.membus.snoopFanout::max_value                0                       # Request fanout histogram
system.membus.snoopFanout::total             10527217                       # Request fanout histogram
system.membus.power_state.pwrStateResidencyTicks::UNDEFINED 882915749000                       # Cumulative time (in ticks) in various power states (Tick)
system.membus.reqLayer0.occupancy         42031023000                       # Layer occupancy (ticks) (Tick)
system.membus.reqLayer0.utilization               0.0                       # Layer utilization (Ratio)
system.membus.respLayer1.occupancy        34355287250                       # Layer occupancy (ticks) (Tick)
system.membus.respLayer1.utilization              0.0                       # Layer utilization (Ratio)
system.membus.snoop_filter.totRequests       21020727                       # Total number of requests made to the snoop filter. (Count)
system.membus.snoop_filter.hitSingleRequests     10493520                       # Number of requests hitting in the snoop filter with a single holder of the requested data. (Count)
system.membus.snoop_filter.hitMultiRequests            0                       # Number of requests hitting in the snoop filter with multiple (>1) holders of the requested data. (Count)
system.membus.snoop_filter.totSnoops                0                       # Total number of snoops made to the snoop filter. (Count)
system.membus.snoop_filter.hitSingleSnoops            0                       # Number of snoops hitting in the snoop filter with a single holder of the requested data. (Count)
system.membus.snoop_filter.hitMultiSnoops            0                       # Number of snoops hitting in the snoop filter with multiple (>1) holders of the requested data. (Count)
system.tol2bus.transDist::ReadResp               1371                       # Transaction distribution (Count)
system.tol2bus.transDist::WritebackDirty     21015055                       # Transaction distribution (Count)
system.tol2bus.transDist::CleanEvict             1658                       # Transaction distribution (Count)
system.tol2bus.transDist::ReadExReq          10525917                       # Transaction distribution (Count)
system.tol2bus.transDist::ReadExResp         10525916                       # Transaction distribution (Count)
system.tol2bus.transDist::ReadCleanReq            929                       # Transaction distribution (Count)
system.tol2bus.transDist::ReadSharedReq           442                       # Transaction distribution (Count)
system.tol2bus.transDist::InvalidateReq             2                       # Transaction distribution (Count)
system.tol2bus.transDist::InvalidateResp            2                       # Transaction distribution (Count)
system.tol2bus.pktCount_system.cpu.icache.mem_side_port::system.l2.cpu_side_port         1858                       # Packet count per connected requestor and responder (Count)
system.tol2bus.pktCount_system.cpu.dcache.mem_side_port::system.l2.cpu_side_port     31574985                       # Packet count per connected requestor and responder (Count)
system.tol2bus.pktCount::total               31576843                       # Packet count per connected requestor and responder (Count)
system.tol2bus.pktSize_system.cpu.icache.mem_side_port::system.l2.cpu_side_port        29728                       # Cumulative packet size per connected requestor and responder (Byte)
system.tol2bus.pktSize_system.cpu.dcache.mem_side_port::system.l2.cpu_side_port    673543360                       # Cumulative packet size per connected requestor and responder (Byte)
system.tol2bus.pktSize::total               673573088                       # Cumulative packet size per connected requestor and responder (Byte)
system.tol2bus.snoops                        10494449                       # Total snoops (Count)
system.tol2bus.snoopTraffic                 335781856                       # Total snoop traffic (Byte)
system.tol2bus.snoopFanout::samples          21021739                       # Request fanout histogram
system.tol2bus.snoopFanout::mean             0.000047                       # Request fanout histogram
system.tol2bus.snoopFanout::stdev            0.006880                       # Request fanout histogram
system.tol2bus.snoopFanout::underflows              0      0.00%      0.00% # Request fanout histogram
system.tol2bus.snoopFanout::0                21020744    100.00%    100.00% # Request fanout histogram
system.tol2bus.snoopFanout::1                     995      0.00%    100.00% # Request fanout histogram
system.tol2bus.snoopFanout::2                       0      0.00%    100.00% # Request fanout histogram
system.tol2bus.snoopFanout::overflows               0      0.00%    100.00% # Request fanout histogram
system.tol2bus.snoopFanout::min_value               0                       # Request fanout histogram
system.tol2bus.snoopFanout::max_value               1                       # Request fanout histogram
system.tol2bus.snoopFanout::total            21021739                       # Request fanout histogram
system.tol2bus.power_state.pwrStateResidencyTicks::UNDEFINED 882915749000                       # Cumulative time (in ticks) in various power states (Tick)
system.tol2bus.reqLayer0.occupancy        15785713000                       # Layer occupancy (ticks) (Tick)
system.tol2bus.reqLayer0.utilization              0.0                       # Layer utilization (Ratio)
system.tol2bus.respLayer0.occupancy            929499                       # Layer occupancy (ticks) (Tick)
system.tol2bus.respLayer0.utilization             0.0                       # Layer utilization (Ratio)
system.tol2bus.respLayer1.occupancy       10526361495                       # Layer occupancy (ticks) (Tick)
system.tol2bus.respLayer1.utilization             0.0                       # Layer utilization (Ratio)
system.tol2bus.snoop_filter.totRequests      21049554                       # Total number of requests made to the snoop filter. (Count)
system.tol2bus.snoop_filter.hitSingleRequests     10522264                       # Number of requests hitting in the snoop filter with a single holder of the requested data. (Count)
system.tol2bus.snoop_filter.hitMultiRequests           56                       # Number of requests hitting in the snoop filter with multiple (>1) holders of the requested data. (Count)
system.tol2bus.snoop_filter.totSnoops             939                       # Total number of snoops made to the snoop filter. (Count)
system.tol2bus.snoop_filter.hitSingleSnoops          939                       # Number of snoops hitting in the snoop filter with a single holder of the requested data. (Count)
system.tol2bus.snoop_filter.hitMultiSnoops            0                       # Number of snoops hitting in the snoop filter with multiple (>1) holders of the requested data. (Count)
system.voltage_domain.voltage                       1                       # Voltage in Volts (Volt)
system.workload.inst.arm                            0                       # number of arm instructions executed (Count)
system.workload.inst.quiesce                        0                       # number of quiesce instructions executed (Count)
system.cpu.idleCycles                      1538829944                       # Total number of cycles that the object has spent stopped (Unspecified)
system.cpu.tickCycles                       227001554                       # Number of cycles that the object actually ticked (Unspecified)

---------- End Simulation Statistics   ----------
