
---------- Begin Simulation Statistics ----------
simSeconds                                   0.258895                       # Number of seconds simulated (Second)
simTicks                                 258894960000                       # Number of ticks simulated (Tick)
finalTick                                258894960000                       # Number of ticks from beginning of simulation (restored from checkpoints and never reset) (Tick)
simFreq                                  1000000000000                       # The number of ticks per simulated second ((Tick/Second))
hostSeconds                                    783.28                       # Real time elapsed on the host (Second)
hostTickRate                                330526235                       # The number of ticks simulated per host second (ticks/s) ((Tick/Second))
hostMemory                                     724464                       # Number of bytes of host memory used (Byte)
simInsts                                    100000000                       # Number of instructions simulated (Count)
simOps                                      184220346                       # Number of ops (including micro ops) simulated (Count)
hostInstRate                                   127668                       # Simulator instruction rate (inst/s) ((Count/Second))
hostOpRate                                     235191                       # Simulator op (including micro ops) rate (op/s) ((Count/Second))
system.clk_domain.clock                          1000                       # Clock period in ticks (Tick)
system.cpu.numCycles                        517789920                       # Number of cpu cycles simulated (Cycle)
system.cpu.numWorkItemsStarted                      0                       # Number of work items this cpu started (Count)
system.cpu.numWorkItemsCompleted                    0                       # Number of work items this cpu completed (Count)
system.cpu.numInsts                         100000000                       # Number of instructions committed (Count)
system.cpu.numOps                           184220346                       # Number of ops (including micro ops) committed (Count)
system.cpu.numDiscardedOps                       4358                       # Number of ops (including micro ops) which were discarded before commit (Count)
system.cpu.numFetchSuspends                         0                       # Number of times Execute suspended instruction fetching (Count)
system.cpu.cpi                               5.177899                       # CPI: cycles per instruction ((Cycle/Count))
system.cpu.ipc                               0.193129                       # IPC: instructions per cycle ((Count/Cycle))
system.cpu.committedInstType_0::No_OpClass            0      0.00%      0.00% # Class of committed instruction (Count)
system.cpu.committedInstType_0::IntAlu       97640466     53.00%     53.00% # Class of committed instruction (Count)
system.cpu.committedInstType_0::IntMult        114699      0.06%     53.06% # Class of committed instruction (Count)
system.cpu.committedInstType_0::IntDiv              0      0.00%     53.06% # Class of committed instruction (Count)
system.cpu.committedInstType_0::FloatAdd            0      0.00%     53.06% # Class of committed instruction (Count)
system.cpu.committedInstType_0::FloatCmp            0      0.00%     53.06% # Class of committed instruction (Count)
system.cpu.committedInstType_0::FloatCvt            0      0.00%     53.06% # Class of committed instruction (Count)
system.cpu.committedInstType_0::FloatMult            0      0.00%     53.06% # Class of committed instruction (Count)
system.cpu.committedInstType_0::FloatMultAcc            0      0.00%     53.06% # Class of committed instruction (Count)
system.cpu.committedInstType_0::FloatDiv            0      0.00%     53.06% # Class of committed instruction (Count)
system.cpu.committedInstType_0::FloatMisc            0      0.00%     53.06% # Class of committed instruction (Count)
system.cpu.committedInstType_0::FloatSqrt            0      0.00%     53.06% # Class of committed instruction (Count)
system.cpu.committedInstType_0::SimdAdd             8      0.00%     53.06% # Class of committed instruction (Count)
system.cpu.committedInstType_0::SimdAddAcc            0      0.00%     53.06% # Class of committed instruction (Count)
system.cpu.committedInstType_0::SimdAlu             8      0.00%     53.06% # Class of committed instruction (Count)
system.cpu.committedInstType_0::SimdCmp             6      0.00%     53.06% # Class of committed instruction (Count)
system.cpu.committedInstType_0::SimdCvt             0      0.00%     53.06% # Class of committed instruction (Count)
system.cpu.committedInstType_0::SimdMisc            1      0.00%     53.06% # Class of committed instruction (Count)
system.cpu.committedInstType_0::SimdMult            0      0.00%     53.06% # Class of committed instruction (Count)
system.cpu.committedInstType_0::SimdMultAcc            0      0.00%     53.06% # Class of committed instruction (Count)
system.cpu.committedInstType_0::SimdShift            0      0.00%     53.06% # Class of committed instruction (Count)
system.cpu.committedInstType_0::SimdShiftAcc            0      0.00%     53.06% # Class of committed instruction (Count)
system.cpu.committedInstType_0::SimdDiv             0      0.00%     53.06% # Class of committed instruction (Count)
system.cpu.committedInstType_0::SimdSqrt            0      0.00%     53.06% # Class of committed instruction (Count)
system.cpu.committedInstType_0::SimdFloatAdd            0      0.00%     53.06% # Class of committed instruction (Count)
system.cpu.committedInstType_0::SimdFloatAlu            0      0.00%     53.06% # Class of committed instruction (Count)
system.cpu.committedInstType_0::SimdFloatCmp            0      0.00%     53.06% # Class of committed instruction (Count)
system.cpu.committedInstType_0::SimdFloatCvt            0      0.00%     53.06% # Class of committed instruction (Count)
system.cpu.committedInstType_0::SimdFloatDiv            0      0.00%     53.06% # Class of committed instruction (Count)
system.cpu.committedInstType_0::SimdFloatMisc            6      0.00%     53.06% # Class of committed instruction (Count)
system.cpu.committedInstType_0::SimdFloatMult            0      0.00%     53.06% # Class of committed instruction (Count)
system.cpu.committedInstType_0::SimdFloatMultAcc            0      0.00%     53.06% # Class of committed instruction (Count)
system.cpu.committedInstType_0::SimdFloatSqrt            0      0.00%     53.06% # Class of committed instruction (Count)
system.cpu.committedInstType_0::SimdReduceAdd            0      0.00%     53.06% # Class of committed instruction (Count)
system.cpu.committedInstType_0::SimdReduceAlu            0      0.00%     53.06% # Class of committed instruction (Count)
system.cpu.committedInstType_0::SimdReduceCmp            0      0.00%     53.06% # Class of committed instruction (Count)
system.cpu.committedInstType_0::SimdFloatReduceAdd            0      0.00%     53.06% # Class of committed instruction (Count)
system.cpu.committedInstType_0::SimdFloatReduceCmp            0      0.00%     53.06% # Class of committed instruction (Count)
system.cpu.committedInstType_0::SimdAes             0      0.00%     53.06% # Class of committed instruction (Count)
system.cpu.committedInstType_0::SimdAesMix            0      0.00%     53.06% # Class of committed instruction (Count)
system.cpu.committedInstType_0::SimdSha1Hash            0      0.00%     53.06% # Class of committed instruction (Count)
system.cpu.committedInstType_0::SimdSha1Hash2            0      0.00%     53.06% # Class of committed instruction (Count)
system.cpu.committedInstType_0::SimdSha256Hash            0      0.00%     53.06% # Class of committed instruction (Count)
system.cpu.committedInstType_0::SimdSha256Hash2            0      0.00%     53.06% # Class of committed instruction (Count)
system.cpu.committedInstType_0::SimdShaSigma2            0      0.00%     53.06% # Class of committed instruction (Count)
system.cpu.committedInstType_0::SimdShaSigma3            0      0.00%     53.06% # Class of committed instruction (Count)
system.cpu.committedInstType_0::SimdPredAlu            0      0.00%     53.06% # Class of committed instruction (Count)
system.cpu.committedInstType_0::MemRead       2082588      1.13%     54.19% # Class of committed instruction (Count)
system.cpu.committedInstType_0::MemWrite     84382564     45.81%    100.00% # Class of committed instruction (Count)
system.cpu.committedInstType_0::FloatMemRead            0      0.00%    100.00% # Class of committed instruction (Count)
system.cpu.committedInstType_0::FloatMemWrite            0      0.00%    100.00% # Class of committed instruction (Count)
system.cpu.committedInstType_0::IprAccess            0      0.00%    100.00% # Class of committed instruction (Count)
system.cpu.committedInstType_0::InstPrefetch            0      0.00%    100.00% # Class of committed instruction (Count)
system.cpu.committedInstType_0::total       184220346                       # Class of committed instruction (Count)
system.cpu.branchPred.lookups                10658551                       # Number of BP lookups (Count)
system.cpu.branchPred.condPredicted          10650222                       # Number of conditional branches predicted (Count)
system.cpu.branchPred.condIncorrect              1447                       # Number of conditional branches incorrect (Count)
system.cpu.branchPred.BTBLookups             10650511                       # Number of BTB lookups (Count)
system.cpu.branchPred.BTBHits                10649082                       # Number of BTB hits (Count)
system.cpu.branchPred.BTBHitRatio            0.999866                       # BTB Hit Ratio (Ratio)
system.cpu.branchPred.RASUsed                    2719                       # Number of times the RAS was used to get a target. (Count)
system.cpu.branchPred.RASIncorrect                  2                       # Number of incorrect RAS predictions. (Count)
system.cpu.branchPred.indirectLookups             198                       # Number of indirect predictor lookups. (Count)
system.cpu.branchPred.indirectHits                 22                       # Number of indirect target hits. (Count)
system.cpu.branchPred.indirectMisses              176                       # Number of indirect misses. (Count)
system.cpu.branchPred.indirectMispredicted          105                       # Number of mispredicted indirect branches. (Count)
system.cpu.dcache.demandHits::cpu.data       83750831                       # number of demand (read+write) hits (Count)
system.cpu.dcache.demandHits::total          83750831                       # number of demand (read+write) hits (Count)
system.cpu.dcache.overallHits::cpu.data      83750879                       # number of overall hits (Count)
system.cpu.dcache.overallHits::total         83750879                       # number of overall hits (Count)
system.cpu.dcache.demandMisses::cpu.data      2631227                       # number of demand (read+write) misses (Count)
system.cpu.dcache.demandMisses::total         2631227                       # number of demand (read+write) misses (Count)
system.cpu.dcache.overallMisses::cpu.data      2631250                       # number of overall misses (Count)
system.cpu.dcache.overallMisses::total        2631250                       # number of overall misses (Count)
system.cpu.dcache.demandMissLatency::cpu.data 321485606500                       # number of demand (read+write) miss ticks (Tick)
system.cpu.dcache.demandMissLatency::total 321485606500                       # number of demand (read+write) miss ticks (Tick)
system.cpu.dcache.overallMissLatency::cpu.data 321485606500                       # number of overall miss ticks (Tick)
system.cpu.dcache.overallMissLatency::total 321485606500                       # number of overall miss ticks (Tick)
system.cpu.dcache.demandAccesses::cpu.data     86382058                       # number of demand (read+write) accesses (Count)
system.cpu.dcache.demandAccesses::total      86382058                       # number of demand (read+write) accesses (Count)
system.cpu.dcache.overallAccesses::cpu.data     86382129                       # number of overall (read+write) accesses (Count)
system.cpu.dcache.overallAccesses::total     86382129                       # number of overall (read+write) accesses (Count)
system.cpu.dcache.demandMissRate::cpu.data     0.030460                       # miss rate for demand accesses (Ratio)
system.cpu.dcache.demandMissRate::total      0.030460                       # miss rate for demand accesses (Ratio)
system.cpu.dcache.overallMissRate::cpu.data     0.030461                       # miss rate for overall accesses (Ratio)
system.cpu.dcache.overallMissRate::total     0.030461                       # miss rate for overall accesses (Ratio)
system.cpu.dcache.demandAvgMissLatency::cpu.data 122180.870940                       # average overall miss latency ((Cycle/Count))
system.cpu.dcache.demandAvgMissLatency::total 122180.870940                       # average overall miss latency ((Cycle/Count))
system.cpu.dcache.overallAvgMissLatency::cpu.data 122179.802945                       # average overall miss latency ((Cycle/Count))
system.cpu.dcache.overallAvgMissLatency::total 122179.802945                       # average overall miss latency ((Cycle/Count))
system.cpu.dcache.blockedCycles::no_mshrs            0                       # number of cycles access was blocked (Cycle)
system.cpu.dcache.blockedCycles::no_targets            0                       # number of cycles access was blocked (Cycle)
system.cpu.dcache.blockedCauses::no_mshrs            0                       # number of times access was blocked (Count)
system.cpu.dcache.blockedCauses::no_targets            0                       # number of times access was blocked (Count)
system.cpu.dcache.avgBlocked::no_mshrs            nan                       # average number of cycles each access was blocked ((Cycle/Count))
system.cpu.dcache.avgBlocked::no_targets          nan                       # average number of cycles each access was blocked ((Cycle/Count))
system.cpu.dcache.writebacks::writebacks      1315408                       # number of writebacks (Count)
system.cpu.dcache.writebacks::total           1315408                       # number of writebacks (Count)
system.cpu.dcache.demandMshrHits::cpu.data      1315169                       # number of demand (read+write) MSHR hits (Count)
system.cpu.dcache.demandMshrHits::total       1315169                       # number of demand (read+write) MSHR hits (Count)
system.cpu.dcache.overallMshrHits::cpu.data      1315169                       # number of overall MSHR hits (Count)
system.cpu.dcache.overallMshrHits::total      1315169                       # number of overall MSHR hits (Count)
system.cpu.dcache.demandMshrMisses::cpu.data      1316058                       # number of demand (read+write) MSHR misses (Count)
system.cpu.dcache.demandMshrMisses::total      1316058                       # number of demand (read+write) MSHR misses (Count)
system.cpu.dcache.overallMshrMisses::cpu.data      1316070                       # number of overall MSHR misses (Count)
system.cpu.dcache.overallMshrMisses::total      1316070                       # number of overall MSHR misses (Count)
system.cpu.dcache.demandMshrMissLatency::cpu.data 157174968500                       # number of demand (read+write) MSHR miss ticks (Tick)
system.cpu.dcache.demandMshrMissLatency::total 157174968500                       # number of demand (read+write) MSHR miss ticks (Tick)
system.cpu.dcache.overallMshrMissLatency::cpu.data 157176187500                       # number of overall MSHR miss ticks (Tick)
system.cpu.dcache.overallMshrMissLatency::total 157176187500                       # number of overall MSHR miss ticks (Tick)
system.cpu.dcache.demandMshrMissRate::cpu.data     0.015235                       # mshr miss ratio for demand accesses (Ratio)
system.cpu.dcache.demandMshrMissRate::total     0.015235                       # mshr miss ratio for demand accesses (Ratio)
system.cpu.dcache.overallMshrMissRate::cpu.data     0.015235                       # mshr miss ratio for overall accesses (Ratio)
system.cpu.dcache.overallMshrMissRate::total     0.015235                       # mshr miss ratio for overall accesses (Ratio)
system.cpu.dcache.demandAvgMshrMissLatency::cpu.data 119428.603071                       # average overall mshr miss latency ((Cycle/Count))
system.cpu.dcache.demandAvgMshrMissLatency::total 119428.603071                       # average overall mshr miss latency ((Cycle/Count))
system.cpu.dcache.overallAvgMshrMissLatency::cpu.data 119428.440357                       # average overall mshr miss latency ((Cycle/Count))
system.cpu.dcache.overallAvgMshrMissLatency::total 119428.440357                       # average overall mshr miss latency ((Cycle/Count))
system.cpu.dcache.replacements                1315558                       # number of replacements (Count)
system.cpu.dcache.LoadLockedReq.hits::cpu.data           34                       # number of LoadLockedReq hits (Count)
system.cpu.dcache.LoadLockedReq.hits::total           34                       # number of LoadLockedReq hits (Count)
system.cpu.dcache.LoadLockedReq.accesses::cpu.data           34                       # number of LoadLockedReq accesses(hits+misses) (Count)
system.cpu.dcache.LoadLockedReq.accesses::total           34                       # number of LoadLockedReq accesses(hits+misses) (Count)
system.cpu.dcache.ReadReq.hits::cpu.data      2043627                       # number of ReadReq hits (Count)
system.cpu.dcache.ReadReq.hits::total         2043627                       # number of ReadReq hits (Count)
system.cpu.dcache.ReadReq.misses::cpu.data          188                       # number of ReadReq misses (Count)
system.cpu.dcache.ReadReq.misses::total           188                       # number of ReadReq misses (Count)
system.cpu.dcache.ReadReq.missLatency::cpu.data     18186500                       # number of ReadReq miss ticks (Tick)
system.cpu.dcache.ReadReq.missLatency::total     18186500                       # number of ReadReq miss ticks (Tick)
system.cpu.dcache.ReadReq.accesses::cpu.data      2043815                       # number of ReadReq accesses(hits+misses) (Count)
system.cpu.dcache.ReadReq.accesses::total      2043815                       # number of ReadReq accesses(hits+misses) (Count)
system.cpu.dcache.ReadReq.missRate::cpu.data     0.000092                       # miss rate for ReadReq accesses (Ratio)
system.cpu.dcache.ReadReq.missRate::total     0.000092                       # miss rate for ReadReq accesses (Ratio)
system.cpu.dcache.ReadReq.avgMissLatency::cpu.data 96736.702128                       # average ReadReq miss latency ((Tick/Count))
system.cpu.dcache.ReadReq.avgMissLatency::total 96736.702128                       # average ReadReq miss latency ((Tick/Count))
system.cpu.dcache.ReadReq.mshrHits::cpu.data           20                       # number of ReadReq MSHR hits (Count)
system.cpu.dcache.ReadReq.mshrHits::total           20                       # number of ReadReq MSHR hits (Count)
system.cpu.dcache.ReadReq.mshrMisses::cpu.data          168                       # number of ReadReq MSHR misses (Count)
system.cpu.dcache.ReadReq.mshrMisses::total          168                       # number of ReadReq MSHR misses (Count)
system.cpu.dcache.ReadReq.mshrMissLatency::cpu.data     16407500                       # number of ReadReq MSHR miss ticks (Tick)
system.cpu.dcache.ReadReq.mshrMissLatency::total     16407500                       # number of ReadReq MSHR miss ticks (Tick)
system.cpu.dcache.ReadReq.mshrMissRate::cpu.data     0.000082                       # mshr miss rate for ReadReq accesses (Ratio)
system.cpu.dcache.ReadReq.mshrMissRate::total     0.000082                       # mshr miss rate for ReadReq accesses (Ratio)
system.cpu.dcache.ReadReq.avgMshrMissLatency::cpu.data 97663.690476                       # average ReadReq mshr miss latency ((Tick/Count))
system.cpu.dcache.ReadReq.avgMshrMissLatency::total 97663.690476                       # average ReadReq mshr miss latency ((Tick/Count))
system.cpu.dcache.SoftPFReq.hits::cpu.data           48                       # number of SoftPFReq hits (Count)
system.cpu.dcache.SoftPFReq.hits::total            48                       # number of SoftPFReq hits (Count)
system.cpu.dcache.SoftPFReq.misses::cpu.data           23                       # number of SoftPFReq misses (Count)
system.cpu.dcache.SoftPFReq.misses::total           23                       # number of SoftPFReq misses (Count)
system.cpu.dcache.SoftPFReq.accesses::cpu.data           71                       # number of SoftPFReq accesses(hits+misses) (Count)
system.cpu.dcache.SoftPFReq.accesses::total           71                       # number of SoftPFReq accesses(hits+misses) (Count)
system.cpu.dcache.SoftPFReq.missRate::cpu.data     0.323944                       # miss rate for SoftPFReq accesses (Ratio)
system.cpu.dcache.SoftPFReq.missRate::total     0.323944                       # miss rate for SoftPFReq accesses (Ratio)
system.cpu.dcache.SoftPFReq.mshrMisses::cpu.data           12                       # number of SoftPFReq MSHR misses (Count)
system.cpu.dcache.SoftPFReq.mshrMisses::total           12                       # number of SoftPFReq MSHR misses (Count)
system.cpu.dcache.SoftPFReq.mshrMissLatency::cpu.data      1219000                       # number of SoftPFReq MSHR miss ticks (Tick)
system.cpu.dcache.SoftPFReq.mshrMissLatency::total      1219000                       # number of SoftPFReq MSHR miss ticks (Tick)
system.cpu.dcache.SoftPFReq.mshrMissRate::cpu.data     0.169014                       # mshr miss rate for SoftPFReq accesses (Ratio)
system.cpu.dcache.SoftPFReq.mshrMissRate::total     0.169014                       # mshr miss rate for SoftPFReq accesses (Ratio)
system.cpu.dcache.SoftPFReq.avgMshrMissLatency::cpu.data 101583.333333                       # average SoftPFReq mshr miss latency ((Tick/Count))
system.cpu.dcache.SoftPFReq.avgMshrMissLatency::total 101583.333333                       # average SoftPFReq mshr miss latency ((Tick/Count))
system.cpu.dcache.StoreCondReq.hits::cpu.data           34                       # number of StoreCondReq hits (Count)
system.cpu.dcache.StoreCondReq.hits::total           34                       # number of StoreCondReq hits (Count)
system.cpu.dcache.StoreCondReq.accesses::cpu.data           34                       # number of StoreCondReq accesses(hits+misses) (Count)
system.cpu.dcache.StoreCondReq.accesses::total           34                       # number of StoreCondReq accesses(hits+misses) (Count)
system.cpu.dcache.WriteReq.hits::cpu.data     81707204                       # number of WriteReq hits (Count)
system.cpu.dcache.WriteReq.hits::total       81707204                       # number of WriteReq hits (Count)
system.cpu.dcache.WriteReq.misses::cpu.data      2631039                       # number of WriteReq misses (Count)
system.cpu.dcache.WriteReq.misses::total      2631039                       # number of WriteReq misses (Count)
system.cpu.dcache.WriteReq.missLatency::cpu.data 321467420000                       # number of WriteReq miss ticks (Tick)
system.cpu.dcache.WriteReq.missLatency::total 321467420000                       # number of WriteReq miss ticks (Tick)
system.cpu.dcache.WriteReq.accesses::cpu.data     84338243                       # number of WriteReq accesses(hits+misses) (Count)
system.cpu.dcache.WriteReq.accesses::total     84338243                       # number of WriteReq accesses(hits+misses) (Count)
system.cpu.dcache.WriteReq.missRate::cpu.data     0.031196                       # miss rate for WriteReq accesses (Ratio)
system.cpu.dcache.WriteReq.missRate::total     0.031196                       # miss rate for WriteReq accesses (Ratio)
system.cpu.dcache.WriteReq.avgMissLatency::cpu.data 122182.689044                       # average WriteReq miss latency ((Tick/Count))
system.cpu.dcache.WriteReq.avgMissLatency::total 122182.689044                       # average WriteReq miss latency ((Tick/Count))
system.cpu.dcache.WriteReq.mshrHits::cpu.data      1315149                       # number of WriteReq MSHR hits (Count)
system.cpu.dcache.WriteReq.mshrHits::total      1315149                       # number of WriteReq MSHR hits (Count)
system.cpu.dcache.WriteReq.mshrMisses::cpu.data      1315890                       # number of WriteReq MSHR misses (Count)
system.cpu.dcache.WriteReq.mshrMisses::total      1315890                       # number of WriteReq MSHR misses (Count)
system.cpu.dcache.WriteReq.mshrMissLatency::cpu.data 157158561000                       # number of WriteReq MSHR miss ticks (Tick)
system.cpu.dcache.WriteReq.mshrMissLatency::total 157158561000                       # number of WriteReq MSHR miss ticks (Tick)
system.cpu.dcache.WriteReq.mshrMissRate::cpu.data     0.015603                       # mshr miss rate for WriteReq accesses (Ratio)
system.cpu.dcache.WriteReq.mshrMissRate::total     0.015603                       # mshr miss rate for WriteReq accesses (Ratio)
system.cpu.dcache.WriteReq.avgMshrMissLatency::cpu.data 119431.381802                       # average WriteReq mshr miss latency ((Tick/Count))
system.cpu.dcache.WriteReq.avgMshrMissLatency::total 119431.381802                       # average WriteReq mshr miss latency ((Tick/Count))
system.cpu.dcache.power_state.pwrStateResidencyTicks::UNDEFINED 258894960000                       # Cumulative time (in ticks) in various power states (Tick)
system.cpu.dcache.tags.tagsInUse           511.034478                       # Average ticks per tags in use ((Tick/Count))
system.cpu.dcache.tags.totalRefs             85067017                       # Total number of references to valid blocks. (Count)
system.cpu.dcache.tags.sampledRefs            1316070                       # Sample count of references to valid blocks. (Count)
system.cpu.dcache.tags.avgRefs              64.637152                       # Average number of references to valid blocks. ((Count/Count))
system.cpu.dcache.tags.warmupTick              213500                       # The tick when the warmup percentage was hit. (Tick)
system.cpu.dcache.tags.occupancies::cpu.data   511.034478                       # Average occupied blocks per tick, per requestor ((Count/Tick))
system.cpu.dcache.tags.avgOccs::cpu.data     0.998114                       # Average percentage of cache occupancy ((Ratio/Tick))
system.cpu.dcache.tags.avgOccs::total        0.998114                       # Average percentage of cache occupancy ((Ratio/Tick))
system.cpu.dcache.tags.occupanciesTaskId::1024          512                       # Occupied blocks per task id (Count)
system.cpu.dcache.tags.ageTaskId_1024::0           51                       # Occupied blocks per task id, per block age (Count)
system.cpu.dcache.tags.ageTaskId_1024::1          461                       # Occupied blocks per task id, per block age (Count)
system.cpu.dcache.tags.ratioOccsTaskId::1024            1                       # Ratio of occupied blocks and all blocks, per task id (Ratio)
system.cpu.dcache.tags.tagAccesses          174080464                       # Number of tag accesses (Count)
system.cpu.dcache.tags.dataAccesses         174080464                       # Number of data accesses (Count)
system.cpu.dcache.tags.power_state.pwrStateResidencyTicks::UNDEFINED 258894960000                       # Cumulative time (in ticks) in various power states (Tick)
system.cpu.fetch2.intInstructions            45070243                       # Number of integer instructions successfully decoded (Count)
system.cpu.fetch2.fpInstructions                    0                       # Number of floating point instructions successfully decoded (Count)
system.cpu.fetch2.vecInstructions                   0                       # Number of SIMD instructions successfully decoded (Count)
system.cpu.fetch2.loadInstructions            2086388                       # Number of memory load instructions successfully decoded (Count)
system.cpu.fetch2.storeInstructions            169238                       # Number of memory store instructions successfully decoded (Count)
system.cpu.fetch2.amoInstructions                   0                       # Number of memory atomic instructions successfully decoded (Count)
system.cpu.icache.demandHits::cpu.inst       31998787                       # number of demand (read+write) hits (Count)
system.cpu.icache.demandHits::total          31998787                       # number of demand (read+write) hits (Count)
system.cpu.icache.overallHits::cpu.inst      31998787                       # number of overall hits (Count)
system.cpu.icache.overallHits::total         31998787                       # number of overall hits (Count)
system.cpu.icache.demandMisses::cpu.inst          269                       # number of demand (read+write) misses (Count)
system.cpu.icache.demandMisses::total             269                       # number of demand (read+write) misses (Count)
system.cpu.icache.overallMisses::cpu.inst          269                       # number of overall misses (Count)
system.cpu.icache.overallMisses::total            269                       # number of overall misses (Count)
system.cpu.icache.demandMissLatency::cpu.inst     27213000                       # number of demand (read+write) miss ticks (Tick)
system.cpu.icache.demandMissLatency::total     27213000                       # number of demand (read+write) miss ticks (Tick)
system.cpu.icache.overallMissLatency::cpu.inst     27213000                       # number of overall miss ticks (Tick)
system.cpu.icache.overallMissLatency::total     27213000                       # number of overall miss ticks (Tick)
system.cpu.icache.demandAccesses::cpu.inst     31999056                       # number of demand (read+write) accesses (Count)
system.cpu.icache.demandAccesses::total      31999056                       # number of demand (read+write) accesses (Count)
system.cpu.icache.overallAccesses::cpu.inst     31999056                       # number of overall (read+write) accesses (Count)
system.cpu.icache.overallAccesses::total     31999056                       # number of overall (read+write) accesses (Count)
system.cpu.icache.demandMissRate::cpu.inst     0.000008                       # miss rate for demand accesses (Ratio)
system.cpu.icache.demandMissRate::total      0.000008                       # miss rate for demand accesses (Ratio)
system.cpu.icache.overallMissRate::cpu.inst     0.000008                       # miss rate for overall accesses (Ratio)
system.cpu.icache.overallMissRate::total     0.000008                       # miss rate for overall accesses (Ratio)
system.cpu.icache.demandAvgMissLatency::cpu.inst 101163.568773                       # average overall miss latency ((Cycle/Count))
system.cpu.icache.demandAvgMissLatency::total 101163.568773                       # average overall miss latency ((Cycle/Count))
system.cpu.icache.overallAvgMissLatency::cpu.inst 101163.568773                       # average overall miss latency ((Cycle/Count))
system.cpu.icache.overallAvgMissLatency::total 101163.568773                       # average overall miss latency ((Cycle/Count))
system.cpu.icache.blockedCycles::no_mshrs            0                       # number of cycles access was blocked (Cycle)
system.cpu.icache.blockedCycles::no_targets            0                       # number of cycles access was blocked (Cycle)
system.cpu.icache.blockedCauses::no_mshrs            0                       # number of times access was blocked (Count)
system.cpu.icache.blockedCauses::no_targets            0                       # number of times access was blocked (Count)
system.cpu.icache.avgBlocked::no_mshrs            nan                       # average number of cycles each access was blocked ((Cycle/Count))
system.cpu.icache.avgBlocked::no_targets          nan                       # average number of cycles each access was blocked ((Cycle/Count))
system.cpu.icache.writebacks::writebacks           16                       # number of writebacks (Count)
system.cpu.icache.writebacks::total                16                       # number of writebacks (Count)
system.cpu.icache.demandMshrMisses::cpu.inst          269                       # number of demand (read+write) MSHR misses (Count)
system.cpu.icache.demandMshrMisses::total          269                       # number of demand (read+write) MSHR misses (Count)
system.cpu.icache.overallMshrMisses::cpu.inst          269                       # number of overall MSHR misses (Count)
system.cpu.icache.overallMshrMisses::total          269                       # number of overall MSHR misses (Count)
system.cpu.icache.demandMshrMissLatency::cpu.inst     26944000                       # number of demand (read+write) MSHR miss ticks (Tick)
system.cpu.icache.demandMshrMissLatency::total     26944000                       # number of demand (read+write) MSHR miss ticks (Tick)
system.cpu.icache.overallMshrMissLatency::cpu.inst     26944000                       # number of overall MSHR miss ticks (Tick)
system.cpu.icache.overallMshrMissLatency::total     26944000                       # number of overall MSHR miss ticks (Tick)
system.cpu.icache.demandMshrMissRate::cpu.inst     0.000008                       # mshr miss ratio for demand accesses (Ratio)
system.cpu.icache.demandMshrMissRate::total     0.000008                       # mshr miss ratio for demand accesses (Ratio)
system.cpu.icache.overallMshrMissRate::cpu.inst     0.000008                       # mshr miss ratio for overall accesses (Ratio)
system.cpu.icache.overallMshrMissRate::total     0.000008                       # mshr miss ratio for overall accesses (Ratio)
system.cpu.icache.demandAvgMshrMissLatency::cpu.inst 100163.568773                       # average overall mshr miss latency ((Cycle/Count))
system.cpu.icache.demandAvgMshrMissLatency::total 100163.568773                       # average overall mshr miss latency ((Cycle/Count))
system.cpu.icache.overallAvgMshrMissLatency::cpu.inst 100163.568773                       # average overall mshr miss latency ((Cycle/Count))
system.cpu.icache.overallAvgMshrMissLatency::total 100163.568773                       # average overall mshr miss latency ((Cycle/Count))
system.cpu.icache.replacements                     16                       # number of replacements (Count)
system.cpu.icache.ReadReq.hits::cpu.inst     31998787                       # number of ReadReq hits (Count)
system.cpu.icache.ReadReq.hits::total        31998787                       # number of ReadReq hits (Count)
system.cpu.icache.ReadReq.misses::cpu.inst          269                       # number of ReadReq misses (Count)
system.cpu.icache.ReadReq.misses::total           269                       # number of ReadReq misses (Count)
system.cpu.icache.ReadReq.missLatency::cpu.inst     27213000                       # number of ReadReq miss ticks (Tick)
system.cpu.icache.ReadReq.missLatency::total     27213000                       # number of ReadReq miss ticks (Tick)
system.cpu.icache.ReadReq.accesses::cpu.inst     31999056                       # number of ReadReq accesses(hits+misses) (Count)
system.cpu.icache.ReadReq.accesses::total     31999056                       # number of ReadReq accesses(hits+misses) (Count)
system.cpu.icache.ReadReq.missRate::cpu.inst     0.000008                       # miss rate for ReadReq accesses (Ratio)
system.cpu.icache.ReadReq.missRate::total     0.000008                       # miss rate for ReadReq accesses (Ratio)
system.cpu.icache.ReadReq.avgMissLatency::cpu.inst 101163.568773                       # average ReadReq miss latency ((Tick/Count))
system.cpu.icache.ReadReq.avgMissLatency::total 101163.568773                       # average ReadReq miss latency ((Tick/Count))
system.cpu.icache.ReadReq.mshrMisses::cpu.inst          269                       # number of ReadReq MSHR misses (Count)
system.cpu.icache.ReadReq.mshrMisses::total          269                       # number of ReadReq MSHR misses (Count)
system.cpu.icache.ReadReq.mshrMissLatency::cpu.inst     26944000                       # number of ReadReq MSHR miss ticks (Tick)
system.cpu.icache.ReadReq.mshrMissLatency::total     26944000                       # number of ReadReq MSHR miss ticks (Tick)
system.cpu.icache.ReadReq.mshrMissRate::cpu.inst     0.000008                       # mshr miss rate for ReadReq accesses (Ratio)
system.cpu.icache.ReadReq.mshrMissRate::total     0.000008                       # mshr miss rate for ReadReq accesses (Ratio)
system.cpu.icache.ReadReq.avgMshrMissLatency::cpu.inst 100163.568773                       # average ReadReq mshr miss latency ((Tick/Count))
system.cpu.icache.ReadReq.avgMshrMissLatency::total 100163.568773                       # average ReadReq mshr miss latency ((Tick/Count))
system.cpu.icache.power_state.pwrStateResidencyTicks::UNDEFINED 258894960000                       # Cumulative time (in ticks) in various power states (Tick)
system.cpu.icache.tags.tagsInUse           217.077782                       # Average ticks per tags in use ((Tick/Count))
system.cpu.icache.tags.totalRefs             31999056                       # Total number of references to valid blocks. (Count)
system.cpu.icache.tags.sampledRefs                269                       # Sample count of references to valid blocks. (Count)
system.cpu.icache.tags.avgRefs           118955.598513                       # Average number of references to valid blocks. ((Count/Count))
system.cpu.icache.tags.warmupTick              102500                       # The tick when the warmup percentage was hit. (Tick)
system.cpu.icache.tags.occupancies::cpu.inst   217.077782                       # Average occupied blocks per tick, per requestor ((Count/Tick))
system.cpu.icache.tags.avgOccs::cpu.inst     0.423980                       # Average percentage of cache occupancy ((Ratio/Tick))
system.cpu.icache.tags.avgOccs::total        0.423980                       # Average percentage of cache occupancy ((Ratio/Tick))
system.cpu.icache.tags.occupanciesTaskId::1024          253                       # Occupied blocks per task id (Count)
system.cpu.icache.tags.ageTaskId_1024::4          253                       # Occupied blocks per task id, per block age (Count)
system.cpu.icache.tags.ratioOccsTaskId::1024     0.494141                       # Ratio of occupied blocks and all blocks, per task id (Ratio)
system.cpu.icache.tags.tagAccesses           63998381                       # Number of tag accesses (Count)
system.cpu.icache.tags.dataAccesses          63998381                       # Number of data accesses (Count)
system.cpu.icache.tags.power_state.pwrStateResidencyTicks::UNDEFINED 258894960000                       # Cumulative time (in ticks) in various power states (Tick)
system.cpu.mmu.dtb.instHits                         0                       # ITB inst hits (Count)
system.cpu.mmu.dtb.instMisses                       0                       # ITB inst misses (Count)
system.cpu.mmu.dtb.readHits                         0                       # DTB read hits (Count)
system.cpu.mmu.dtb.readMisses                       0                       # DTB read misses (Count)
system.cpu.mmu.dtb.writeHits                        0                       # DTB write hits (Count)
system.cpu.mmu.dtb.writeMisses                      0                       # DTB write misses (Count)
system.cpu.mmu.dtb.inserts                          0                       # Number of times an entry is inserted into the TLB (Count)
system.cpu.mmu.dtb.flushTlb                         0                       # Number of times complete TLB was flushed (Count)
system.cpu.mmu.dtb.flushTlbMva                      0                       # Number of times TLB was flushed by MVA (Count)
system.cpu.mmu.dtb.flushTlbMvaAsid                  0                       # Number of times TLB was flushed by MVA & ASID (Count)
system.cpu.mmu.dtb.flushTlbAsid                     0                       # Number of times TLB was flushed by ASID (Count)
system.cpu.mmu.dtb.flushedEntries                   0                       # Number of entries that have been flushed from TLB (Count)
system.cpu.mmu.dtb.alignFaults                      0                       # Number of TLB faults due to alignment restrictions (Count)
system.cpu.mmu.dtb.prefetchFaults                   0                       # Number of TLB faults due to prefetch (Count)
system.cpu.mmu.dtb.domainFaults                     0                       # Number of TLB faults due to domain restrictions (Count)
system.cpu.mmu.dtb.permsFaults                      0                       # Number of TLB faults due to permissions restrictions (Count)
system.cpu.mmu.dtb.readAccesses                     0                       # DTB read accesses (Count)
system.cpu.mmu.dtb.writeAccesses                    0                       # DTB write accesses (Count)
system.cpu.mmu.dtb.instAccesses                     0                       # ITB inst accesses (Count)
system.cpu.mmu.dtb.hits                             0                       # Total TLB (inst and data) hits (Count)
system.cpu.mmu.dtb.misses                           0                       # Total TLB (inst and data) misses (Count)
system.cpu.mmu.dtb.accesses                         0                       # Total TLB (inst and data) accesses (Count)
system.cpu.mmu.dtb_walker.walks                     0                       # Table walker walks requested (Count)
system.cpu.mmu.dtb_walker.requestOrigin_Requested::Data            0                       # Table walker requests started/completed, data/inst (Count)
system.cpu.mmu.dtb_walker.requestOrigin_Requested::Inst            0                       # Table walker requests started/completed, data/inst (Count)
system.cpu.mmu.dtb_walker.requestOrigin_Requested::total            0                       # Table walker requests started/completed, data/inst (Count)
system.cpu.mmu.dtb_walker.requestOrigin_Completed::Data            0                       # Table walker requests started/completed, data/inst (Count)
system.cpu.mmu.dtb_walker.requestOrigin_Completed::Inst            0                       # Table walker requests started/completed, data/inst (Count)
system.cpu.mmu.dtb_walker.requestOrigin_Completed::total            0                       # Table walker requests started/completed, data/inst (Count)
system.cpu.mmu.dtb_walker.requestOrigin::total            0                       # Table walker requests started/completed, data/inst (Count)
system.cpu.mmu.dtb_walker.power_state.pwrStateResidencyTicks::UNDEFINED 258894960000                       # Cumulative time (in ticks) in various power states (Tick)
system.cpu.mmu.itb.instHits                         0                       # ITB inst hits (Count)
system.cpu.mmu.itb.instMisses                       0                       # ITB inst misses (Count)
system.cpu.mmu.itb.readHits                         0                       # DTB read hits (Count)
system.cpu.mmu.itb.readMisses                       0                       # DTB read misses (Count)
system.cpu.mmu.itb.writeHits                        0                       # DTB write hits (Count)
system.cpu.mmu.itb.writeMisses                      0                       # DTB write misses (Count)
system.cpu.mmu.itb.inserts                          0                       # Number of times an entry is inserted into the TLB (Count)
system.cpu.mmu.itb.flushTlb                         0                       # Number of times complete TLB was flushed (Count)
system.cpu.mmu.itb.flushTlbMva                      0                       # Number of times TLB was flushed by MVA (Count)
system.cpu.mmu.itb.flushTlbMvaAsid                  0                       # Number of times TLB was flushed by MVA & ASID (Count)
system.cpu.mmu.itb.flushTlbAsid                     0                       # Number of times TLB was flushed by ASID (Count)
system.cpu.mmu.itb.flushedEntries                   0                       # Number of entries that have been flushed from TLB (Count)
system.cpu.mmu.itb.alignFaults                      0                       # Number of TLB faults due to alignment restrictions (Count)
system.cpu.mmu.itb.prefetchFaults                   0                       # Number of TLB faults due to prefetch (Count)
system.cpu.mmu.itb.domainFaults                     0                       # Number of TLB faults due to domain restrictions (Count)
system.cpu.mmu.itb.permsFaults                      0                       # Number of TLB faults due to permissions restrictions (Count)
system.cpu.mmu.itb.readAccesses                     0                       # DTB read accesses (Count)
system.cpu.mmu.itb.writeAccesses                    0                       # DTB write accesses (Count)
system.cpu.mmu.itb.instAccesses                     0                       # ITB inst accesses (Count)
system.cpu.mmu.itb.hits                             0                       # Total TLB (inst and data) hits (Count)
system.cpu.mmu.itb.misses                           0                       # Total TLB (inst and data) misses (Count)
system.cpu.mmu.itb.accesses                         0                       # Total TLB (inst and data) accesses (Count)
system.cpu.mmu.itb_walker.walks                     0                       # Table walker walks requested (Count)
system.cpu.mmu.itb_walker.requestOrigin_Requested::Data            0                       # Table walker requests started/completed, data/inst (Count)
system.cpu.mmu.itb_walker.requestOrigin_Requested::Inst            0                       # Table walker requests started/completed, data/inst (Count)
system.cpu.mmu.itb_walker.requestOrigin_Requested::total            0                       # Table walker requests started/completed, data/inst (Count)
system.cpu.mmu.itb_walker.requestOrigin_Completed::Data            0                       # Table walker requests started/completed, data/inst (Count)
system.cpu.mmu.itb_walker.requestOrigin_Completed::Inst            0                       # Table walker requests started/completed, data/inst (Count)
system.cpu.mmu.itb_walker.requestOrigin_Completed::total            0                       # Table walker requests started/completed, data/inst (Count)
system.cpu.mmu.itb_walker.requestOrigin::total            0                       # Table walker requests started/completed, data/inst (Count)
system.cpu.mmu.itb_walker.power_state.pwrStateResidencyTicks::UNDEFINED 258894960000                       # Cumulative time (in ticks) in various power states (Tick)
system.cpu.mmu.stage2_dtb.instHits                  0                       # ITB inst hits (Count)
system.cpu.mmu.stage2_dtb.instMisses                0                       # ITB inst misses (Count)
system.cpu.mmu.stage2_dtb.readHits                  0                       # DTB read hits (Count)
system.cpu.mmu.stage2_dtb.readMisses                0                       # DTB read misses (Count)
system.cpu.mmu.stage2_dtb.writeHits                 0                       # DTB write hits (Count)
system.cpu.mmu.stage2_dtb.writeMisses               0                       # DTB write misses (Count)
system.cpu.mmu.stage2_dtb.inserts                   0                       # Number of times an entry is inserted into the TLB (Count)
system.cpu.mmu.stage2_dtb.flushTlb                  0                       # Number of times complete TLB was flushed (Count)
system.cpu.mmu.stage2_dtb.flushTlbMva               0                       # Number of times TLB was flushed by MVA (Count)
system.cpu.mmu.stage2_dtb.flushTlbMvaAsid            0                       # Number of times TLB was flushed by MVA & ASID (Count)
system.cpu.mmu.stage2_dtb.flushTlbAsid              0                       # Number of times TLB was flushed by ASID (Count)
system.cpu.mmu.stage2_dtb.flushedEntries            0                       # Number of entries that have been flushed from TLB (Count)
system.cpu.mmu.stage2_dtb.alignFaults               0                       # Number of TLB faults due to alignment restrictions (Count)
system.cpu.mmu.stage2_dtb.prefetchFaults            0                       # Number of TLB faults due to prefetch (Count)
system.cpu.mmu.stage2_dtb.domainFaults              0                       # Number of TLB faults due to domain restrictions (Count)
system.cpu.mmu.stage2_dtb.permsFaults               0                       # Number of TLB faults due to permissions restrictions (Count)
system.cpu.mmu.stage2_dtb.readAccesses              0                       # DTB read accesses (Count)
system.cpu.mmu.stage2_dtb.writeAccesses             0                       # DTB write accesses (Count)
system.cpu.mmu.stage2_dtb.instAccesses              0                       # ITB inst accesses (Count)
system.cpu.mmu.stage2_dtb.hits                      0                       # Total TLB (inst and data) hits (Count)
system.cpu.mmu.stage2_dtb.misses                    0                       # Total TLB (inst and data) misses (Count)
system.cpu.mmu.stage2_dtb.accesses                  0                       # Total TLB (inst and data) accesses (Count)
system.cpu.mmu.stage2_dtb_walker.walks              0                       # Table walker walks requested (Count)
system.cpu.mmu.stage2_dtb_walker.requestOrigin_Requested::Data            0                       # Table walker requests started/completed, data/inst (Count)
system.cpu.mmu.stage2_dtb_walker.requestOrigin_Requested::Inst            0                       # Table walker requests started/completed, data/inst (Count)
system.cpu.mmu.stage2_dtb_walker.requestOrigin_Requested::total            0                       # Table walker requests started/completed, data/inst (Count)
system.cpu.mmu.stage2_dtb_walker.requestOrigin_Completed::Data            0                       # Table walker requests started/completed, data/inst (Count)
system.cpu.mmu.stage2_dtb_walker.requestOrigin_Completed::Inst            0                       # Table walker requests started/completed, data/inst (Count)
system.cpu.mmu.stage2_dtb_walker.requestOrigin_Completed::total            0                       # Table walker requests started/completed, data/inst (Count)
system.cpu.mmu.stage2_dtb_walker.requestOrigin::total            0                       # Table walker requests started/completed, data/inst (Count)
system.cpu.mmu.stage2_dtb_walker.power_state.pwrStateResidencyTicks::UNDEFINED 258894960000                       # Cumulative time (in ticks) in various power states (Tick)
system.cpu.mmu.stage2_itb.instHits                  0                       # ITB inst hits (Count)
system.cpu.mmu.stage2_itb.instMisses                0                       # ITB inst misses (Count)
system.cpu.mmu.stage2_itb.readHits                  0                       # DTB read hits (Count)
system.cpu.mmu.stage2_itb.readMisses                0                       # DTB read misses (Count)
system.cpu.mmu.stage2_itb.writeHits                 0                       # DTB write hits (Count)
system.cpu.mmu.stage2_itb.writeMisses               0                       # DTB write misses (Count)
system.cpu.mmu.stage2_itb.inserts                   0                       # Number of times an entry is inserted into the TLB (Count)
system.cpu.mmu.stage2_itb.flushTlb                  0                       # Number of times complete TLB was flushed (Count)
system.cpu.mmu.stage2_itb.flushTlbMva               0                       # Number of times TLB was flushed by MVA (Count)
system.cpu.mmu.stage2_itb.flushTlbMvaAsid            0                       # Number of times TLB was flushed by MVA & ASID (Count)
system.cpu.mmu.stage2_itb.flushTlbAsid              0                       # Number of times TLB was flushed by ASID (Count)
system.cpu.mmu.stage2_itb.flushedEntries            0                       # Number of entries that have been flushed from TLB (Count)
system.cpu.mmu.stage2_itb.alignFaults               0                       # Number of TLB faults due to alignment restrictions (Count)
system.cpu.mmu.stage2_itb.prefetchFaults            0                       # Number of TLB faults due to prefetch (Count)
system.cpu.mmu.stage2_itb.domainFaults              0                       # Number of TLB faults due to domain restrictions (Count)
system.cpu.mmu.stage2_itb.permsFaults               0                       # Number of TLB faults due to permissions restrictions (Count)
system.cpu.mmu.stage2_itb.readAccesses              0                       # DTB read accesses (Count)
system.cpu.mmu.stage2_itb.writeAccesses             0                       # DTB write accesses (Count)
system.cpu.mmu.stage2_itb.instAccesses              0                       # ITB inst accesses (Count)
system.cpu.mmu.stage2_itb.hits                      0                       # Total TLB (inst and data) hits (Count)
system.cpu.mmu.stage2_itb.misses                    0                       # Total TLB (inst and data) misses (Count)
system.cpu.mmu.stage2_itb.accesses                  0                       # Total TLB (inst and data) accesses (Count)
system.cpu.mmu.stage2_itb_walker.walks              0                       # Table walker walks requested (Count)
system.cpu.mmu.stage2_itb_walker.requestOrigin_Requested::Data            0                       # Table walker requests started/completed, data/inst (Count)
system.cpu.mmu.stage2_itb_walker.requestOrigin_Requested::Inst            0                       # Table walker requests started/completed, data/inst (Count)
system.cpu.mmu.stage2_itb_walker.requestOrigin_Requested::total            0                       # Table walker requests started/completed, data/inst (Count)
system.cpu.mmu.stage2_itb_walker.requestOrigin_Completed::Data            0                       # Table walker requests started/completed, data/inst (Count)
system.cpu.mmu.stage2_itb_walker.requestOrigin_Completed::Inst            0                       # Table walker requests started/completed, data/inst (Count)
system.cpu.mmu.stage2_itb_walker.requestOrigin_Completed::total            0                       # Table walker requests started/completed, data/inst (Count)
system.cpu.mmu.stage2_itb_walker.requestOrigin::total            0                       # Table walker requests started/completed, data/inst (Count)
system.cpu.mmu.stage2_itb_walker.power_state.pwrStateResidencyTicks::UNDEFINED 258894960000                       # Cumulative time (in ticks) in various power states (Tick)
system.cpu.power_state.pwrStateResidencyTicks::ON 258894960000                       # Cumulative time (in ticks) in various power states (Tick)
system.cpu.thread_0.numInsts                100000000                       # Number of Instructions committed (Count)
system.cpu.thread_0.numOps                  184220346                       # Number of Ops committed (Count)
system.cpu.thread_0.numMemRefs                      0                       # Number of Memory References (Count)
system.cpu.workload.numSyscalls                    19                       # Number of system calls (Count)
system.cpu_clk_domain.clock                       500                       # Clock period in ticks (Tick)
system.cpu_voltage_domain.voltage                   1                       # Voltage in Volts (Volt)
system.l2.demandHits::cpu.inst                      9                       # number of demand (read+write) hits (Count)
system.l2.demandHits::cpu.data                     36                       # number of demand (read+write) hits (Count)
system.l2.demandHits::total                        45                       # number of demand (read+write) hits (Count)
system.l2.overallHits::cpu.inst                     9                       # number of overall hits (Count)
system.l2.overallHits::cpu.data                    36                       # number of overall hits (Count)
system.l2.overallHits::total                       45                       # number of overall hits (Count)
system.l2.demandMisses::cpu.inst                  260                       # number of demand (read+write) misses (Count)
system.l2.demandMisses::cpu.data              1316034                       # number of demand (read+write) misses (Count)
system.l2.demandMisses::total                 1316294                       # number of demand (read+write) misses (Count)
system.l2.overallMisses::cpu.inst                 260                       # number of overall misses (Count)
system.l2.overallMisses::cpu.data             1316034                       # number of overall misses (Count)
system.l2.overallMisses::total                1316294                       # number of overall misses (Count)
system.l2.demandMissLatency::cpu.inst        26404000                       # number of demand (read+write) miss ticks (Tick)
system.l2.demandMissLatency::cpu.data    155201572000                       # number of demand (read+write) miss ticks (Tick)
system.l2.demandMissLatency::total       155227976000                       # number of demand (read+write) miss ticks (Tick)
system.l2.overallMissLatency::cpu.inst       26404000                       # number of overall miss ticks (Tick)
system.l2.overallMissLatency::cpu.data   155201572000                       # number of overall miss ticks (Tick)
system.l2.overallMissLatency::total      155227976000                       # number of overall miss ticks (Tick)
system.l2.demandAccesses::cpu.inst                269                       # number of demand (read+write) accesses (Count)
system.l2.demandAccesses::cpu.data            1316070                       # number of demand (read+write) accesses (Count)
system.l2.demandAccesses::total               1316339                       # number of demand (read+write) accesses (Count)
system.l2.overallAccesses::cpu.inst               269                       # number of overall (read+write) accesses (Count)
system.l2.overallAccesses::cpu.data           1316070                       # number of overall (read+write) accesses (Count)
system.l2.overallAccesses::total              1316339                       # number of overall (read+write) accesses (Count)
system.l2.demandMissRate::cpu.inst           0.966543                       # miss rate for demand accesses (Ratio)
system.l2.demandMissRate::cpu.data           0.999973                       # miss rate for demand accesses (Ratio)
system.l2.demandMissRate::total              0.999966                       # miss rate for demand accesses (Ratio)
system.l2.overallMissRate::cpu.inst          0.966543                       # miss rate for overall accesses (Ratio)
system.l2.overallMissRate::cpu.data          0.999973                       # miss rate for overall accesses (Ratio)
system.l2.overallMissRate::total             0.999966                       # miss rate for overall accesses (Ratio)
system.l2.demandAvgMissLatency::cpu.inst 101553.846154                       # average overall miss latency ((Cycle/Count))
system.l2.demandAvgMissLatency::cpu.data 117931.278371                       # average overall miss latency ((Cycle/Count))
system.l2.demandAvgMissLatency::total    117928.043431                       # average overall miss latency ((Cycle/Count))
system.l2.overallAvgMissLatency::cpu.inst 101553.846154                       # average overall miss latency ((Cycle/Count))
system.l2.overallAvgMissLatency::cpu.data 117931.278371                       # average overall miss latency ((Cycle/Count))
system.l2.overallAvgMissLatency::total   117928.043431                       # average overall miss latency ((Cycle/Count))
system.l2.blockedCycles::no_mshrs                   0                       # number of cycles access was blocked (Cycle)
system.l2.blockedCycles::no_targets                 0                       # number of cycles access was blocked (Cycle)
system.l2.blockedCauses::no_mshrs                   0                       # number of times access was blocked (Count)
system.l2.blockedCauses::no_targets                 0                       # number of times access was blocked (Count)
system.l2.avgBlocked::no_mshrs                    nan                       # average number of cycles each access was blocked ((Cycle/Count))
system.l2.avgBlocked::no_targets                  nan                       # average number of cycles each access was blocked ((Cycle/Count))
system.l2.writebacks::writebacks              1311810                       # number of writebacks (Count)
system.l2.writebacks::total                   1311810                       # number of writebacks (Count)
system.l2.demandMshrHits::cpu.inst                  1                       # number of demand (read+write) MSHR hits (Count)
system.l2.demandMshrHits::cpu.data                  7                       # number of demand (read+write) MSHR hits (Count)
system.l2.demandMshrHits::total                     8                       # number of demand (read+write) MSHR hits (Count)
system.l2.overallMshrHits::cpu.inst                 1                       # number of overall MSHR hits (Count)
system.l2.overallMshrHits::cpu.data                 7                       # number of overall MSHR hits (Count)
system.l2.overallMshrHits::total                    8                       # number of overall MSHR hits (Count)
system.l2.demandMshrMisses::cpu.inst              259                       # number of demand (read+write) MSHR misses (Count)
system.l2.demandMshrMisses::cpu.data          1316027                       # number of demand (read+write) MSHR misses (Count)
system.l2.demandMshrMisses::total             1316286                       # number of demand (read+write) MSHR misses (Count)
system.l2.overallMshrMisses::cpu.inst             259                       # number of overall MSHR misses (Count)
system.l2.overallMshrMisses::cpu.data         1316027                       # number of overall MSHR misses (Count)
system.l2.overallMshrMisses::total            1316286                       # number of overall MSHR misses (Count)
system.l2.demandMshrMissLatency::cpu.inst     23797500                       # number of demand (read+write) MSHR miss ticks (Tick)
system.l2.demandMshrMissLatency::cpu.data 142040717000                       # number of demand (read+write) MSHR miss ticks (Tick)
system.l2.demandMshrMissLatency::total   142064514500                       # number of demand (read+write) MSHR miss ticks (Tick)
system.l2.overallMshrMissLatency::cpu.inst     23797500                       # number of overall MSHR miss ticks (Tick)
system.l2.overallMshrMissLatency::cpu.data 142040717000                       # number of overall MSHR miss ticks (Tick)
system.l2.overallMshrMissLatency::total  142064514500                       # number of overall MSHR miss ticks (Tick)
system.l2.demandMshrMissRate::cpu.inst       0.962825                       # mshr miss ratio for demand accesses (Ratio)
system.l2.demandMshrMissRate::cpu.data       0.999967                       # mshr miss ratio for demand accesses (Ratio)
system.l2.demandMshrMissRate::total          0.999960                       # mshr miss ratio for demand accesses (Ratio)
system.l2.overallMshrMissRate::cpu.inst      0.962825                       # mshr miss ratio for overall accesses (Ratio)
system.l2.overallMshrMissRate::cpu.data      0.999967                       # mshr miss ratio for overall accesses (Ratio)
system.l2.overallMshrMissRate::total         0.999960                       # mshr miss ratio for overall accesses (Ratio)
system.l2.demandAvgMshrMissLatency::cpu.inst 91882.239382                       # average overall mshr miss latency ((Cycle/Count))
system.l2.demandAvgMshrMissLatency::cpu.data 107931.461133                       # average overall mshr miss latency ((Cycle/Count))
system.l2.demandAvgMshrMissLatency::total 107928.303196                       # average overall mshr miss latency ((Cycle/Count))
system.l2.overallAvgMshrMissLatency::cpu.inst 91882.239382                       # average overall mshr miss latency ((Cycle/Count))
system.l2.overallAvgMshrMissLatency::cpu.data 107931.461133                       # average overall mshr miss latency ((Cycle/Count))
system.l2.overallAvgMshrMissLatency::total 107928.303196                       # average overall mshr miss latency ((Cycle/Count))
system.l2.replacements                        1312194                       # number of replacements (Count)
system.l2.ReadCleanReq.hits::cpu.inst               9                       # number of ReadCleanReq hits (Count)
system.l2.ReadCleanReq.hits::total                  9                       # number of ReadCleanReq hits (Count)
system.l2.ReadCleanReq.misses::cpu.inst           260                       # number of ReadCleanReq misses (Count)
system.l2.ReadCleanReq.misses::total              260                       # number of ReadCleanReq misses (Count)
system.l2.ReadCleanReq.missLatency::cpu.inst     26404000                       # number of ReadCleanReq miss ticks (Tick)
system.l2.ReadCleanReq.missLatency::total     26404000                       # number of ReadCleanReq miss ticks (Tick)
system.l2.ReadCleanReq.accesses::cpu.inst          269                       # number of ReadCleanReq accesses(hits+misses) (Count)
system.l2.ReadCleanReq.accesses::total            269                       # number of ReadCleanReq accesses(hits+misses) (Count)
system.l2.ReadCleanReq.missRate::cpu.inst     0.966543                       # miss rate for ReadCleanReq accesses (Ratio)
system.l2.ReadCleanReq.missRate::total       0.966543                       # miss rate for ReadCleanReq accesses (Ratio)
system.l2.ReadCleanReq.avgMissLatency::cpu.inst 101553.846154                       # average ReadCleanReq miss latency ((Tick/Count))
system.l2.ReadCleanReq.avgMissLatency::total 101553.846154                       # average ReadCleanReq miss latency ((Tick/Count))
system.l2.ReadCleanReq.mshrHits::cpu.inst            1                       # number of ReadCleanReq MSHR hits (Count)
system.l2.ReadCleanReq.mshrHits::total              1                       # number of ReadCleanReq MSHR hits (Count)
system.l2.ReadCleanReq.mshrMisses::cpu.inst          259                       # number of ReadCleanReq MSHR misses (Count)
system.l2.ReadCleanReq.mshrMisses::total          259                       # number of ReadCleanReq MSHR misses (Count)
system.l2.ReadCleanReq.mshrMissLatency::cpu.inst     23797500                       # number of ReadCleanReq MSHR miss ticks (Tick)
system.l2.ReadCleanReq.mshrMissLatency::total     23797500                       # number of ReadCleanReq MSHR miss ticks (Tick)
system.l2.ReadCleanReq.mshrMissRate::cpu.inst     0.962825                       # mshr miss rate for ReadCleanReq accesses (Ratio)
system.l2.ReadCleanReq.mshrMissRate::total     0.962825                       # mshr miss rate for ReadCleanReq accesses (Ratio)
system.l2.ReadCleanReq.avgMshrMissLatency::cpu.inst 91882.239382                       # average ReadCleanReq mshr miss latency ((Tick/Count))
system.l2.ReadCleanReq.avgMshrMissLatency::total 91882.239382                       # average ReadCleanReq mshr miss latency ((Tick/Count))
system.l2.ReadExReq.hits::cpu.data                  5                       # number of ReadExReq hits (Count)
system.l2.ReadExReq.hits::total                     5                       # number of ReadExReq hits (Count)
system.l2.ReadExReq.misses::cpu.data          1315885                       # number of ReadExReq misses (Count)
system.l2.ReadExReq.misses::total             1315885                       # number of ReadExReq misses (Count)
system.l2.ReadExReq.missLatency::cpu.data 155184664500                       # number of ReadExReq miss ticks (Tick)
system.l2.ReadExReq.missLatency::total   155184664500                       # number of ReadExReq miss ticks (Tick)
system.l2.ReadExReq.accesses::cpu.data        1315890                       # number of ReadExReq accesses(hits+misses) (Count)
system.l2.ReadExReq.accesses::total           1315890                       # number of ReadExReq accesses(hits+misses) (Count)
system.l2.ReadExReq.missRate::cpu.data       0.999996                       # miss rate for ReadExReq accesses (Ratio)
system.l2.ReadExReq.missRate::total          0.999996                       # miss rate for ReadExReq accesses (Ratio)
system.l2.ReadExReq.avgMissLatency::cpu.data 117931.783173                       # average ReadExReq miss latency ((Tick/Count))
system.l2.ReadExReq.avgMissLatency::total 117931.783173                       # average ReadExReq miss latency ((Tick/Count))
system.l2.ReadExReq.mshrMisses::cpu.data      1315885                       # number of ReadExReq MSHR misses (Count)
system.l2.ReadExReq.mshrMisses::total         1315885                       # number of ReadExReq MSHR misses (Count)
system.l2.ReadExReq.mshrMissLatency::cpu.data 142025814500                       # number of ReadExReq MSHR miss ticks (Tick)
system.l2.ReadExReq.mshrMissLatency::total 142025814500                       # number of ReadExReq MSHR miss ticks (Tick)
system.l2.ReadExReq.mshrMissRate::cpu.data     0.999996                       # mshr miss rate for ReadExReq accesses (Ratio)
system.l2.ReadExReq.mshrMissRate::total      0.999996                       # mshr miss rate for ReadExReq accesses (Ratio)
system.l2.ReadExReq.avgMshrMissLatency::cpu.data 107931.783173                       # average ReadExReq mshr miss latency ((Tick/Count))
system.l2.ReadExReq.avgMshrMissLatency::total 107931.783173                       # average ReadExReq mshr miss latency ((Tick/Count))
system.l2.ReadSharedReq.hits::cpu.data             31                       # number of ReadSharedReq hits (Count)
system.l2.ReadSharedReq.hits::total                31                       # number of ReadSharedReq hits (Count)
system.l2.ReadSharedReq.misses::cpu.data          149                       # number of ReadSharedReq misses (Count)
system.l2.ReadSharedReq.misses::total             149                       # number of ReadSharedReq misses (Count)
system.l2.ReadSharedReq.missLatency::cpu.data     16907500                       # number of ReadSharedReq miss ticks (Tick)
system.l2.ReadSharedReq.missLatency::total     16907500                       # number of ReadSharedReq miss ticks (Tick)
system.l2.ReadSharedReq.accesses::cpu.data          180                       # number of ReadSharedReq accesses(hits+misses) (Count)
system.l2.ReadSharedReq.accesses::total           180                       # number of ReadSharedReq accesses(hits+misses) (Count)
system.l2.ReadSharedReq.missRate::cpu.data     0.827778                       # miss rate for ReadSharedReq accesses (Ratio)
system.l2.ReadSharedReq.missRate::total      0.827778                       # miss rate for ReadSharedReq accesses (Ratio)
system.l2.ReadSharedReq.avgMissLatency::cpu.data 113473.154362                       # average ReadSharedReq miss latency ((Tick/Count))
system.l2.ReadSharedReq.avgMissLatency::total 113473.154362                       # average ReadSharedReq miss latency ((Tick/Count))
system.l2.ReadSharedReq.mshrHits::cpu.data            7                       # number of ReadSharedReq MSHR hits (Count)
system.l2.ReadSharedReq.mshrHits::total             7                       # number of ReadSharedReq MSHR hits (Count)
system.l2.ReadSharedReq.mshrMisses::cpu.data          142                       # number of ReadSharedReq MSHR misses (Count)
system.l2.ReadSharedReq.mshrMisses::total          142                       # number of ReadSharedReq MSHR misses (Count)
system.l2.ReadSharedReq.mshrMissLatency::cpu.data     14902500                       # number of ReadSharedReq MSHR miss ticks (Tick)
system.l2.ReadSharedReq.mshrMissLatency::total     14902500                       # number of ReadSharedReq MSHR miss ticks (Tick)
system.l2.ReadSharedReq.mshrMissRate::cpu.data     0.788889                       # mshr miss rate for ReadSharedReq accesses (Ratio)
system.l2.ReadSharedReq.mshrMissRate::total     0.788889                       # mshr miss rate for ReadSharedReq accesses (Ratio)
system.l2.ReadSharedReq.avgMshrMissLatency::cpu.data 104947.183099                       # average ReadSharedReq mshr miss latency ((Tick/Count))
system.l2.ReadSharedReq.avgMshrMissLatency::total 104947.183099                       # average ReadSharedReq mshr miss latency ((Tick/Count))
system.l2.WritebackClean.hits::writebacks           16                       # number of WritebackClean hits (Count)
system.l2.WritebackClean.hits::total               16                       # number of WritebackClean hits (Count)
system.l2.WritebackClean.accesses::writebacks           16                       # number of WritebackClean accesses(hits+misses) (Count)
system.l2.WritebackClean.accesses::total           16                       # number of WritebackClean accesses(hits+misses) (Count)
system.l2.WritebackDirty.hits::writebacks      1315408                       # number of WritebackDirty hits (Count)
system.l2.WritebackDirty.hits::total          1315408                       # number of WritebackDirty hits (Count)
system.l2.WritebackDirty.accesses::writebacks      1315408                       # number of WritebackDirty accesses(hits+misses) (Count)
system.l2.WritebackDirty.accesses::total      1315408                       # number of WritebackDirty accesses(hits+misses) (Count)
system.l2.power_state.pwrStateResidencyTicks::UNDEFINED 258894960000                       # Cumulative time (in ticks) in various power states (Tick)
system.l2.tags.tagsInUse                  4054.139472                       # Average ticks per tags in use ((Tick/Count))
system.l2.tags.totalRefs                      2631855                       # Total number of references to valid blocks. (Count)
system.l2.tags.sampledRefs                    1316290                       # Sample count of references to valid blocks. (Count)
system.l2.tags.avgRefs                       1.999449                       # Average number of references to valid blocks. ((Count/Count))
system.l2.tags.warmupTick                       92000                       # The tick when the warmup percentage was hit. (Tick)
system.l2.tags.occupancies::writebacks       0.008352                       # Average occupied blocks per tick, per requestor ((Count/Tick))
system.l2.tags.occupancies::cpu.inst         2.423748                       # Average occupied blocks per tick, per requestor ((Count/Tick))
system.l2.tags.occupancies::cpu.data      4051.707372                       # Average occupied blocks per tick, per requestor ((Count/Tick))
system.l2.tags.avgOccs::writebacks           0.000002                       # Average percentage of cache occupancy ((Ratio/Tick))
system.l2.tags.avgOccs::cpu.inst             0.000592                       # Average percentage of cache occupancy ((Ratio/Tick))
system.l2.tags.avgOccs::cpu.data             0.989186                       # Average percentage of cache occupancy ((Ratio/Tick))
system.l2.tags.avgOccs::total                0.989780                       # Average percentage of cache occupancy ((Ratio/Tick))
system.l2.tags.occupanciesTaskId::1024           4096                       # Occupied blocks per task id (Count)
system.l2.tags.ageTaskId_1024::0                   51                       # Occupied blocks per task id, per block age (Count)
system.l2.tags.ageTaskId_1024::1                  463                       # Occupied blocks per task id, per block age (Count)
system.l2.tags.ageTaskId_1024::2                 3582                       # Occupied blocks per task id, per block age (Count)
system.l2.tags.ratioOccsTaskId::1024                1                       # Ratio of occupied blocks and all blocks, per task id (Ratio)
system.l2.tags.tagAccesses                   11843742                       # Number of tag accesses (Count)
system.l2.tags.dataAccesses                  11843742                       # Number of data accesses (Count)
system.l2.tags.power_state.pwrStateResidencyTicks::UNDEFINED 258894960000                       # Cumulative time (in ticks) in various power states (Tick)
system.mem_ctrls.avgPriority_writebacks::samples   5247240.00                       # Average QoS priority value for accepted requests
system.mem_ctrls.avgPriority_cpu.inst::samples      1036.00                       # Average QoS priority value for accepted requests
system.mem_ctrls.avgPriority_cpu.data::samples   5264108.00                       # Average QoS priority value for accepted requests
system.mem_ctrls.priorityMinLatency      0.000000018750                       # per QoS priority minimum request to response latency (Second)
system.mem_ctrls.priorityMaxLatency      0.000150148750                       # per QoS priority maximum request to response latency (Second)
system.mem_ctrls.numReadWriteTurnArounds       286958                       # Number of turnarounds from READ to WRITE (Count)
system.mem_ctrls.numWriteReadTurnArounds       286958                       # Number of turnarounds from WRITE to READ (Count)
system.mem_ctrls.numStayReadState             7693648                       # Number of times bus staying in READ state (Count)
system.mem_ctrls.numStayWriteState            4982896                       # Number of times bus staying in WRITE state (Count)
system.mem_ctrls.readReqs                     1316286                       # Number of read requests accepted (Count)
system.mem_ctrls.writeReqs                    1311810                       # Number of write requests accepted (Count)
system.mem_ctrls.readBursts                   5265144                       # Number of controller read bursts, including those serviced by the write queue (Count)
system.mem_ctrls.writeBursts                  5247240                       # Number of controller write bursts, including those merged in the write queue (Count)
system.mem_ctrls.servicedByWrQ                      0                       # Number of controller read bursts serviced by the write queue (Count)
system.mem_ctrls.mergedWrBursts                     0                       # Number of controller write bursts merged with an existing one (Count)
system.mem_ctrls.neitherReadNorWriteReqs            0                       # Number of requests that are neither read nor write (Count)
system.mem_ctrls.avgRdQLen                       4.04                       # Average read queue length when enqueuing ((Count/Tick))
system.mem_ctrls.avgWrQLen                      27.76                       # Average write queue length when enqueuing ((Count/Tick))
system.mem_ctrls.numRdRetry                         0                       # Number of times read queue was full causing retry (Count)
system.mem_ctrls.numWrRetry                         0                       # Number of times write queue was full causing retry (Count)
system.mem_ctrls.readPktSize::0                     0                       # Read request sizes (log2) (Count)
system.mem_ctrls.readPktSize::1                     0                       # Read request sizes (log2) (Count)
[...]
system.mem_ctrls.dram.perBankWrBursts::8       327924                       # Per bank write bursts (Count)
system.mem_ctrls.dram.perBankWrBursts::9       327808                       # Per bank write bursts (Count)
system.mem_ctrls.dram.perBankWrBursts::10       327808                       # Per bank write bursts (Count)
system.mem_ctrls.dram.perBankWrBursts::11       327808                       # Per bank write bursts (Count)
system.mem_ctrls.dram.perBankWrBursts::12       327908                       # Per bank write bursts (Count)
system.mem_ctrls.dram.perBankWrBursts::13       327984                       # Per bank write bursts (Count)
system.mem_ctrls.dram.perBankWrBursts::14       327960                       # Per bank write bursts (Count)
system.mem_ctrls.dram.perBankWrBursts::15       327976                       # Per bank write bursts (Count)
system.mem_ctrls.dram.totQLat            215221658250                       # Total ticks spent queuing (Tick)
system.mem_ctrls.dram.totBusLat           26325720000                       # Total ticks spent in databus transfers (Tick)
system.mem_ctrls.dram.totMemAccLat       313943108250                       # Total ticks spent from burst creation until serviced by the DRAM (Tick)
system.mem_ctrls.dram.avgQLat                40876.69                       # Average queueing delay per DRAM burst ((Tick/Count))
system.mem_ctrls.dram.avgBusLat               5000.00                       # Average bus latency per DRAM burst ((Tick/Count))
system.mem_ctrls.dram.avgMemAccLat           59626.69                       # Average memory access latency per DRAM burst ((Tick/Count))
system.mem_ctrls.dram.readRowHits             4766842                       # Number of row buffer hits during reads (Count)
system.mem_ctrls.dram.writeRowHits            4672305                       # Number of row buffer hits during writes (Count)
system.mem_ctrls.dram.readRowHitRate            90.54                       # Row buffer hit rate for reads (Ratio)
system.mem_ctrls.dram.writeRowHitRate           89.04                       # Row buffer hit rate for writes (Ratio)
system.mem_ctrls.dram.bytesPerActivate::samples      1073211                       # Bytes accessed per row activation (Byte)
system.mem_ctrls.dram.bytesPerActivate::mean   626.894864                       # Bytes accessed per row activation (Byte)
system.mem_ctrls.dram.bytesPerActivate::gmean   465.311883                       # Bytes accessed per row activation (Byte)
system.mem_ctrls.dram.bytesPerActivate::stdev   391.597579                       # Bytes accessed per row activation (Byte)
system.mem_ctrls.dram.bytesPerActivate::0-127         2012      0.19%      0.19% # Bytes accessed per row activation (Byte)
system.mem_ctrls.dram.bytesPerActivate::128-255       234582     21.86%     22.05% # Bytes accessed per row activation (Byte)
system.mem_ctrls.dram.bytesPerActivate::256-383       197784     18.43%     40.47% # Bytes accessed per row activation (Byte)
system.mem_ctrls.dram.bytesPerActivate::384-511        28383      2.64%     43.12% # Bytes accessed per row activation (Byte)
system.mem_ctrls.dram.bytesPerActivate::512-639        51652      4.81%     47.93% # Bytes accessed per row activation (Byte)
system.mem_ctrls.dram.bytesPerActivate::640-767        17981      1.68%     49.61% # Bytes accessed per row activation (Byte)
system.mem_ctrls.dram.bytesPerActivate::768-895        60863      5.67%     55.28% # Bytes accessed per row activation (Byte)
system.mem_ctrls.dram.bytesPerActivate::896-1023         5889      0.55%     55.83% # Bytes accessed per row activation (Byte)
system.mem_ctrls.dram.bytesPerActivate::1024-1151       474065     44.17%    100.00% # Bytes accessed per row activation (Byte)
system.mem_ctrls.dram.bytesPerActivate::total      1073211                       # Bytes accessed per row activation (Byte)
system.mem_ctrls.dram.bytesRead             336969216                       # Total number of bytes read from DRAM (Byte)
system.mem_ctrls.dram.bytesWritten          335821760                       # Total number of bytes written to DRAM (Byte)
system.mem_ctrls.dram.avgRdBW             1301.567307                       # Average DRAM read bandwidth in MiBytes/s ((Byte/Second))
system.mem_ctrls.dram.avgWrBW             1297.135178                       # Average DRAM write bandwidth in MiBytes/s ((Byte/Second))
system.mem_ctrls.dram.peakBW                 12800.00                       # Theoretical peak bandwidth in MiByte/s ((Byte/Second))
system.mem_ctrls.dram.busUtil                   20.30                       # Data bus utilization in percentage (Ratio)
system.mem_ctrls.dram.busUtilRead               10.17                       # Data bus utilization in percentage for reads (Ratio)
system.mem_ctrls.dram.busUtilWrite              10.13                       # Data bus utilization in percentage for writes (Ratio)
system.mem_ctrls.dram.pageHitRate               89.79                       # Row buffer hit rate, read and write combined (Ratio)
system.mem_ctrls.dram.power_state.pwrStateResidencyTicks::UNDEFINED 258894960000                       # Cumulative time (in ticks) in various power states (Tick)
system.mem_ctrls.dram.rank0.actEnergy      3831752400                       # Energy for activate commands per rank (pJ) (Joule)
system.mem_ctrls.dram.rank0.preEnergy      2036620905                       # Energy for precharge commands per rank (pJ) (Joule)
system.mem_ctrls.dram.rank0.readEnergy    18800648160                       # Energy for read commands per rank (pJ) (Joule)
system.mem_ctrls.dram.rank0.writeEnergy   13697483580                       # Energy for write commands per rank (pJ) (Joule)
system.mem_ctrls.dram.rank0.refreshEnergy 20436780000.000004                       # Energy for refresh commands per rank (pJ) (Joule)
system.mem_ctrls.dram.rank0.actBackEnergy  62732684940                       # Energy for active background per rank (pJ) (Joule)
system.mem_ctrls.dram.rank0.preBackEnergy  46588140480                       # Energy for precharge background per rank (pJ) (Joule)
system.mem_ctrls.dram.rank0.actPowerDownEnergy            0                       # Energy for active power-down per rank (pJ) (Joule)
system.mem_ctrls.dram.rank0.prePowerDownEnergy            0                       # Energy for precharge power-down per rank (pJ) (Joule)
system.mem_ctrls.dram.rank0.selfRefreshEnergy            0                       # Energy for self refresh per rank (pJ) (Joule)
system.mem_ctrls.dram.rank0.totalEnergy  168124110465                       # Total energy per rank (pJ) (Joule)
system.mem_ctrls.dram.rank0.averagePower   649.391207                       # Core power per rank (mW) (Watt)
system.mem_ctrls.dram.rank0.totalIdleTime            0                       # Total Idle time Per DRAM Rank (Tick)
system.mem_ctrls.dram.rank0.pwrStateTime::IDLE 118230952250                       # Time in different power states (Tick)
system.mem_ctrls.dram.rank0.pwrStateTime::REF   8645000000                       # Time in different power states (Tick)
system.mem_ctrls.dram.rank0.pwrStateTime::SREF            0                       # Time in different power states (Tick)
system.mem_ctrls.dram.rank0.pwrStateTime::PRE_PDN            0                       # Time in different power states (Tick)
system.mem_ctrls.dram.rank0.pwrStateTime::ACT 132019007750                       # Time in different power states (Tick)
system.mem_ctrls.dram.rank0.pwrStateTime::ACT_PDN            0                       # Time in different power states (Tick)
system.mem_ctrls.dram.rank1.actEnergy      3830981280                       # Energy for activate commands per rank (pJ) (Joule)
system.mem_ctrls.dram.rank1.preEnergy      2036214840                       # Energy for precharge commands per rank (pJ) (Joule)
system.mem_ctrls.dram.rank1.readEnergy    18792480000                       # Energy for read commands per rank (pJ) (Joule)
system.mem_ctrls.dram.rank1.writeEnergy   13692978720                       # Energy for write commands per rank (pJ) (Joule)
system.mem_ctrls.dram.rank1.refreshEnergy 20436780000.000004                       # Energy for refresh commands per rank (pJ) (Joule)
system.mem_ctrls.dram.rank1.actBackEnergy  62743818180                       # Energy for active background per rank (pJ) (Joule)
system.mem_ctrls.dram.rank1.preBackEnergy  46578765120                       # Energy for precharge background per rank (pJ) (Joule)
system.mem_ctrls.dram.rank1.actPowerDownEnergy            0                       # Energy for active power-down per rank (pJ) (Joule)
system.mem_ctrls.dram.rank1.prePowerDownEnergy            0                       # Energy for precharge power-down per rank (pJ) (Joule)
system.mem_ctrls.dram.rank1.selfRefreshEnergy            0                       # Energy for self refresh per rank (pJ) (Joule)
system.mem_ctrls.dram.rank1.totalEnergy  168112018140                       # Total energy per rank (pJ) (Joule)
system.mem_ctrls.dram.rank1.averagePower   649.344499                       # Core power per rank (mW) (Watt)
system.mem_ctrls.dram.rank1.totalIdleTime            0                       # Total Idle time Per DRAM Rank (Tick)
system.mem_ctrls.dram.rank1.pwrStateTime::IDLE 118204413500                       # Time in different power states (Tick)
system.mem_ctrls.dram.rank1.pwrStateTime::REF   8645000000                       # Time in different power states (Tick)
system.mem_ctrls.dram.rank1.pwrStateTime::SREF            0                       # Time in different power states (Tick)
system.mem_ctrls.dram.rank1.pwrStateTime::PRE_PDN            0                       # Time in different power states (Tick)
system.mem_ctrls.dram.rank1.pwrStateTime::ACT 132045546500                       # Time in different power states (Tick)
system.mem_ctrls.dram.rank1.pwrStateTime::ACT_PDN            0                       # Time in different power states (Tick)
system.mem_ctrls.power_state.pwrStateResidencyTicks::UNDEFINED 258894960000                       # Cumulative time (in ticks) in various power states (Tick)
system.membus.transDist::ReadResp                 401                       # Transaction distribution (Count)
system.membus.transDist::WritebackDirty       1311810                       # Transaction distribution (Count)
system.membus.transDist::CleanEvict               112                       # Transaction distribution (Count)
system.membus.transDist::ReadExReq            1315885                       # Transaction distribution (Count)
system.membus.transDist::ReadExResp           1315885                       # Transaction distribution (Count)
system.membus.transDist::ReadSharedReq            401                       # Transaction distribution (Count)
system.membus.pktCount_system.l2.mem_side_port::system.mem_ctrls.port      3944494                       # Packet count per connected requestor and responder (Count)
system.membus.pktCount::total                 3944494                       # Packet count per connected requestor and responder (Count)
system.membus.pktSize_system.l2.mem_side_port::system.mem_ctrls.port    672792576                       # Cumulative packet size per connected requestor and responder (Byte)
system.membus.pktSize::total                672792576                       # Cumulative packet size per connected requestor and responder (Byte)
system.membus.snoops                                0                       # Total snoops (Count)
system.membus.snoopTraffic                          0                       # Total snoop traffic (Byte)
system.membus.snoopFanout::samples            1316286                       # Request fanout histogram
system.membus.snoopFanout::mean                     0                       # Request fanout histogram
system.membus.snoopFanout::stdev                    0                       # Request fanout histogram
system.membus.snoopFanout::underflows               0      0.00%      0.00% # Request fanout histogram
system.membus.snoopFanout::0                  1316286    100.00%    100.00% # Request fanout histogram
system.membus.snoopFanout::1                        0      0.00%    100.00% # Request fanout histogram
system.membus.snoopFanout::overflows                0      0.00%    100.00% # Request fanout histogram
system.membus.snoopFanout::min_value                0                       # Request fanout histogram
system.membus.snoopFanout::max_value                0                       # Request fanout histogram
system.membus.snoopFanout::total              1316286                       # Request fanout histogram
system.membus.power_state.pwrStateResidencyTicks::UNDEFINED 258894960000                       # Cumulative time (in ticks) in various power states (Tick)
system.membus.reqLayer0.occupancy         23639392000                       # Layer occupancy (ticks) (Tick)
system.membus.reqLayer0.utilization               0.1                       # Layer utilization (Ratio)
system.membus.respLayer1.occupancy        22747843500                       # Layer occupancy (ticks) (Tick)
system.membus.respLayer1.utilization              0.1                       # Layer utilization (Ratio)
system.membus.snoop_filter.totRequests        2628208                       # Total number of requests made to the snoop filter. (Count)
system.membus.snoop_filter.hitSingleRequests      1311937                       # Number of requests hitting in the snoop filter with a single holder of the requested data. (Count)
system.membus.snoop_filter.hitMultiRequests            0                       # Number of requests hitting in the snoop filter with multiple (>1) holders of the requested data. (Count)
system.membus.snoop_filter.totSnoops                0                       # Total number of snoops made to the snoop filter. (Count)
system.membus.snoop_filter.hitSingleSnoops            0                       # Number of snoops hitting in the snoop filter with a single holder of the requested data. (Count)
system.membus.snoop_filter.hitMultiSnoops            0                       # Number of snoops hitting in the snoop filter with multiple (>1) holders of the requested data. (Count)
system.tol2bus.transDist::ReadResp                449                       # Transaction distribution (Count)
system.tol2bus.transDist::WritebackDirty      2627218                       # Transaction distribution (Count)
system.tol2bus.transDist::WritebackClean           16                       # Transaction distribution (Count)
system.tol2bus.transDist::CleanEvict              534                       # Transaction distribution (Count)
system.tol2bus.transDist::ReadExReq           1315890                       # Transaction distribution (Count)
system.tol2bus.transDist::ReadExResp          1315890                       # Transaction distribution (Count)
system.tol2bus.transDist::ReadCleanReq            269                       # Transaction distribution (Count)
system.tol2bus.transDist::ReadSharedReq           180                       # Transaction distribution (Count)
system.tol2bus.pktCount_system.cpu.icache.mem_side_port::system.l2.cpu_side_port          554                       # Packet count per connected requestor and responder (Count)
system.tol2bus.pktCount_system.cpu.dcache.mem_side_port::system.l2.cpu_side_port      3947698                       # Packet count per connected requestor and responder (Count)
system.tol2bus.pktCount::total                3948252                       # Packet count per connected requestor and responder (Count)
system.tol2bus.pktSize_system.cpu.icache.mem_side_port::system.l2.cpu_side_port        72960                       # Cumulative packet size per connected requestor and responder (Byte)
system.tol2bus.pktSize_system.cpu.dcache.mem_side_port::system.l2.cpu_side_port    673658368                       # Cumulative packet size per connected requestor and responder (Byte)
system.tol2bus.pktSize::total               673731328                       # Cumulative packet size per connected requestor and responder (Byte)
system.tol2bus.snoops                         1312194                       # Total snoops (Count)
system.tol2bus.snoopTraffic                 335823360                       # Total snoop traffic (Byte)
system.tol2bus.snoopFanout::samples           2628533                       # Request fanout histogram
system.tol2bus.snoopFanout::mean             0.000123                       # Request fanout histogram
system.tol2bus.snoopFanout::stdev            0.011067                       # Request fanout histogram
system.tol2bus.snoopFanout::underflows              0      0.00%      0.00% # Request fanout histogram
system.tol2bus.snoopFanout::0                 2628211     99.99%     99.99% # Request fanout histogram
system.tol2bus.snoopFanout::1                     322      0.01%    100.00% # Request fanout histogram
system.tol2bus.snoopFanout::2                       0      0.00%    100.00% # Request fanout histogram
system.tol2bus.snoopFanout::overflows               0      0.00%    100.00% # Request fanout histogram
system.tol2bus.snoopFanout::min_value               0                       # Request fanout histogram
system.tol2bus.snoopFanout::max_value               1                       # Request fanout histogram
system.tol2bus.snoopFanout::total             2628533                       # Request fanout histogram
system.tol2bus.power_state.pwrStateResidencyTicks::UNDEFINED 258894960000                       # Cumulative time (in ticks) in various power states (Tick)
system.tol2bus.reqLayer0.occupancy         6577652500                       # Layer occupancy (ticks) (Tick)
system.tol2bus.reqLayer0.utilization              0.0                       # Layer utilization (Ratio)
system.tol2bus.respLayer0.occupancy           1210999                       # Layer occupancy (ticks) (Tick)
system.tol2bus.respLayer0.utilization             0.0                       # Layer utilization (Ratio)
system.tol2bus.respLayer1.occupancy        5922318493                       # Layer occupancy (ticks) (Tick)
system.tol2bus.respLayer1.utilization             0.0                       # Layer utilization (Ratio)
system.tol2bus.snoop_filter.totRequests       2631913                       # Total number of requests made to the snoop filter. (Count)
system.tol2bus.snoop_filter.hitSingleRequests      1315574                       # Number of requests hitting in the snoop filter with a single holder of the requested data. (Count)
system.tol2bus.snoop_filter.hitMultiRequests           50                       # Number of requests hitting in the snoop filter with multiple (>1) holders of the requested data. (Count)
system.tol2bus.snoop_filter.totSnoops             272                       # Total number of snoops made to the snoop filter. (Count)
system.tol2bus.snoop_filter.hitSingleSnoops          272                       # Number of snoops hitting in the snoop filter with a single holder of the requested data. (Count)
system.tol2bus.snoop_filter.hitMultiSnoops            0                       # Number of snoops hitting in the snoop filter with multiple (>1) holders of the requested data. (Count)
system.voltage_domain.voltage                       1                       # Voltage in Volts (Volt)
system.workload.inst.arm                            0                       # number of arm instructions executed (Count)
system.workload.inst.quiesce                        0                       # number of quiesce instructions executed (Count)
system.cpu.idleCycles                       300051684                       # Total number of cycles that the object has spent stopped (Unspecified)
system.cpu.tickCycles                       217738236                       # Number of cycles that the object actually ticked (Unspecified)

---------- End Simulation Statistics   ----------
