
---------- Begin Simulation Statistics ----------
final_tick                               166919738000                       # Number of ticks from beginning of simulation (restored from checkpoints and never reset)
host_inst_rate                                  94627                       # Simulator instruction rate (inst/s)
host_mem_usage                                 661024                       # Number of bytes of host memory used
host_op_rate                                    94813                       # Simulator op (including micro ops) rate (op/s)
host_seconds                                  1056.78                       # Real time elapsed on the host
host_tick_rate                              157951461                       # Simulator tick rate (ticks/s)
sim_freq                                 1000000000000                       # Frequency of simulated ticks
sim_insts                                   100000001                       # Number of instructions simulated
sim_ops                                     100196356                       # Number of ops (including micro ops) simulated
sim_seconds                                  0.166920                       # Number of seconds simulated
sim_ticks                                166919738000                       # Number of ticks simulated
system.cpu.committedInsts                   100000001                       # Number of instructions committed
system.cpu.committedOps                     100196356                       # Number of ops (including micro ops) committed
system.cpu.cpi                               1.669197                       # CPI: cycles per instruction
system.cpu.discardedOps                        189511                       # Number of ops (including micro ops) which were discarded before commit
system.cpu.idleCycles                        34034522                       # Total number of cycles that the object has spent stopped
system.cpu.ipc                               0.599090                       # IPC: instructions per cycle
system.cpu.numCycles                        166919738                       # number of cpu cycles simulated
system.cpu.numFetchSuspends                         0                       # Number of times Execute suspended instruction fetching
system.cpu.numWorkItemsCompleted                    0                       # number of work items this cpu completed
system.cpu.numWorkItemsStarted                      0                       # number of work items this cpu started
system.cpu.op_class_0::No_OpClass                   0      0.00%      0.00% # Class of committed instruction
system.cpu.op_class_0::IntAlu                46526879     46.44%     46.44% # Class of committed instruction
system.cpu.op_class_0::IntMult                  20723      0.02%     46.46% # Class of committed instruction
system.cpu.op_class_0::IntDiv                       0      0.00%     46.46% # Class of committed instruction
system.cpu.op_class_0::FloatAdd                     0      0.00%     46.46% # Class of committed instruction
system.cpu.op_class_0::FloatCmp                     0      0.00%     46.46% # Class of committed instruction
system.cpu.op_class_0::FloatCvt                     0      0.00%     46.46% # Class of committed instruction
system.cpu.op_class_0::FloatMult                    0      0.00%     46.46% # Class of committed instruction
system.cpu.op_class_0::FloatMultAcc                 0      0.00%     46.46% # Class of committed instruction
system.cpu.op_class_0::FloatDiv                     0      0.00%     46.46% # Class of committed instruction
system.cpu.op_class_0::FloatMisc                    0      0.00%     46.46% # Class of committed instruction
system.cpu.op_class_0::FloatSqrt                    0      0.00%     46.46% # Class of committed instruction
system.cpu.op_class_0::SimdAdd                      0      0.00%     46.46% # Class of committed instruction
system.cpu.op_class_0::SimdAddAcc                   0      0.00%     46.46% # Class of committed instruction
system.cpu.op_class_0::SimdAlu                      0      0.00%     46.46% # Class of committed instruction
system.cpu.op_class_0::SimdCmp                      0      0.00%     46.46% # Class of committed instruction
system.cpu.op_class_0::SimdCvt                      0      0.00%     46.46% # Class of committed instruction
system.cpu.op_class_0::SimdMisc                     0      0.00%     46.46% # Class of committed instruction
system.cpu.op_class_0::SimdMult                     0      0.00%     46.46% # Class of committed instruction
system.cpu.op_class_0::SimdMultAcc                  0      0.00%     46.46% # Class of committed instruction
system.cpu.op_class_0::SimdShift                    0      0.00%     46.46% # Class of committed instruction
system.cpu.op_class_0::SimdShiftAcc                 0      0.00%     46.46% # Class of committed instruction
system.cpu.op_class_0::SimdDiv                      0      0.00%     46.46% # Class of committed instruction
system.cpu.op_class_0::SimdSqrt                     0      0.00%     46.46% # Class of committed instruction
system.cpu.op_class_0::SimdFloatAdd                 0      0.00%     46.46% # Class of committed instruction
system.cpu.op_class_0::SimdFloatAlu                 0      0.00%     46.46% # Class of committed instruction
system.cpu.op_class_0::SimdFloatCmp                 0      0.00%     46.46% # Class of committed instruction
system.cpu.op_class_0::SimdFloatCvt                 0      0.00%     46.46% # Class of committed instruction
system.cpu.op_class_0::SimdFloatDiv                 0      0.00%     46.46% # Class of committed instruction
system.cpu.op_class_0::SimdFloatMisc               18      0.00%     46.46% # Class of committed instruction
system.cpu.op_class_0::SimdFloatMult                0      0.00%     46.46% # Class of committed instruction
system.cpu.op_class_0::SimdFloatMultAcc             0      0.00%     46.46% # Class of committed instruction
system.cpu.op_class_0::SimdFloatSqrt                0      0.00%     46.46% # Class of committed instruction
system.cpu.op_class_0::SimdReduceAdd                0      0.00%     46.46% # Class of committed instruction
system.cpu.op_class_0::SimdReduceAlu                0      0.00%     46.46% # Class of committed instruction
system.cpu.op_class_0::SimdReduceCmp                0      0.00%     46.46% # Class of committed instruction
system.cpu.op_class_0::SimdFloatReduceAdd            0      0.00%     46.46% # Class of committed instruction
system.cpu.op_class_0::SimdFloatReduceCmp            0      0.00%     46.46% # Class of committed instruction
system.cpu.op_class_0::SimdAes                      0      0.00%     46.46% # Class of committed instruction
system.cpu.op_class_0::SimdAesMix                   0      0.00%     46.46% # Class of committed instruction
system.cpu.op_class_0::SimdSha1Hash                 0      0.00%     46.46% # Class of committed instruction
system.cpu.op_class_0::SimdSha1Hash2                0      0.00%     46.46% # Class of committed instruction
system.cpu.op_class_0::SimdSha256Hash               0      0.00%     46.46% # Class of committed instruction
system.cpu.op_class_0::SimdSha256Hash2              0      0.00%     46.46% # Class of committed instruction
system.cpu.op_class_0::SimdShaSigma2                0      0.00%     46.46% # Class of committed instruction
system.cpu.op_class_0::SimdShaSigma3                0      0.00%     46.46% # Class of committed instruction
system.cpu.op_class_0::SimdPredAlu                  0      0.00%     46.46% # Class of committed instruction
system.cpu.op_class_0::MemRead               42690524     42.61%     89.06% # Class of committed instruction
system.cpu.op_class_0::MemWrite              10958212     10.94%    100.00% # Class of committed instruction
system.cpu.op_class_0::FloatMemRead                 0      0.00%    100.00% # Class of committed instruction
system.cpu.op_class_0::FloatMemWrite                0      0.00%    100.00% # Class of committed instruction
system.cpu.op_class_0::IprAccess                    0      0.00%    100.00% # Class of committed instruction
system.cpu.op_class_0::InstPrefetch                 0      0.00%    100.00% # Class of committed instruction
system.cpu.op_class_0::total                100196356                       # Class of committed instruction
system.cpu.tickCycles                       132885216                       # Number of cycles that the object actually ticked
system.cpu.workload.numSyscalls                    85                       # Number of system calls
system.membus.snoop_filter.hit_multi_requests            0                       # Number of requests hitting in the snoop filter with multiple (>1) holders of the requested data.
system.membus.snoop_filter.hit_multi_snoops            0                       # Number of snoops hitting in the snoop filter with multiple (>1) holders of the requested data.
system.membus.snoop_filter.hit_single_requests       278613                       # Number of requests hitting in the snoop filter with a single holder of the requested data.
system.membus.snoop_filter.hit_single_snoops            0                       # Number of snoops hitting in the snoop filter with a single holder of the requested data.
system.membus.snoop_filter.tot_requests        565905                       # Total number of requests made to the snoop filter.
system.membus.snoop_filter.tot_snoops               0                       # Total number of snoops made to the snoop filter.
system.tol2bus.snoop_filter.hit_multi_requests          664                       # Number of requests hitting in the snoop filter with multiple (>1) holders of the requested data.
system.tol2bus.snoop_filter.hit_multi_snoops           17                       # Number of snoops hitting in the snoop filter with multiple (>1) holders of the requested data.
system.tol2bus.snoop_filter.hit_single_requests       780471                       # Number of requests hitting in the snoop filter with a single holder of the requested data.
system.tol2bus.snoop_filter.hit_single_snoops        14195                       # Number of snoops hitting in the snoop filter with a single holder of the requested data.
system.tol2bus.snoop_filter.tot_requests      1562477                       # Total number of requests made to the snoop filter.
system.tol2bus.snoop_filter.tot_snoops          14212                       # Total number of snoops made to the snoop filter.
system.clk_domain.clock                          1000                       # Clock period in ticks
system.cpu.branchPred.lookups                 4485787                       # Number of BP lookups
system.cpu.branchPred.condPredicted           3735468                       # Number of conditional branches predicted
system.cpu.branchPred.condIncorrect             81003                       # Number of conditional branches incorrect
system.cpu.branchPred.BTBLookups              2103811                       # Number of BTB lookups
system.cpu.branchPred.BTBHits                 2101843                       # Number of BTB hits
system.cpu.branchPred.BTBHitPct             99.906455                       # BTB Hit Percentage
system.cpu.branchPred.RASUsed                   65385                       # Number of times the RAS was used to get a target.
system.cpu.branchPred.RASIncorrect                 15                       # Number of incorrect RAS predictions.
system.cpu.branchPred.indirectLookups             684                       # Number of indirect predictor lookups.
system.cpu.branchPred.indirectHits                285                       # Number of indirect target hits.
system.cpu.branchPred.indirectMisses              399                       # Number of indirect misses.
system.cpu.branchPred.indirectMispredicted          158                       # Number of mispredicted indirect branches.
system.cpu.dcache.demand_hits::.cpu.data     51239726                       # number of demand (read+write) hits
system.cpu.dcache.demand_hits::total         51239726                       # number of demand (read+write) hits
system.cpu.dcache.overall_hits::.cpu.data     51240198                       # number of overall hits
system.cpu.dcache.overall_hits::total        51240198                       # number of overall hits
system.cpu.dcache.demand_misses::.cpu.data       828712                       # number of demand (read+write) misses
system.cpu.dcache.demand_misses::total         828712                       # number of demand (read+write) misses
system.cpu.dcache.overall_misses::.cpu.data       836658                       # number of overall misses
system.cpu.dcache.overall_misses::total        836658                       # number of overall misses
system.cpu.dcache.demand_miss_latency::.cpu.data  46040661000                       # number of demand (read+write) miss cycles
system.cpu.dcache.demand_miss_latency::total  46040661000                       # number of demand (read+write) miss cycles
system.cpu.dcache.overall_miss_latency::.cpu.data  46040661000                       # number of overall miss cycles
system.cpu.dcache.overall_miss_latency::total  46040661000                       # number of overall miss cycles
system.cpu.dcache.demand_accesses::.cpu.data     52068438                       # number of demand (read+write) accesses
system.cpu.dcache.demand_accesses::total     52068438                       # number of demand (read+write) accesses
system.cpu.dcache.overall_accesses::.cpu.data     52076856                       # number of overall (read+write) accesses
system.cpu.dcache.overall_accesses::total     52076856                       # number of overall (read+write) accesses
system.cpu.dcache.demand_miss_rate::.cpu.data     0.015916                       # miss rate for demand accesses
system.cpu.dcache.demand_miss_rate::total     0.015916                       # miss rate for demand accesses
system.cpu.dcache.overall_miss_rate::.cpu.data     0.016066                       # miss rate for overall accesses
system.cpu.dcache.overall_miss_rate::total     0.016066                       # miss rate for overall accesses
system.cpu.dcache.demand_avg_miss_latency::.cpu.data 55556.889486                       # average overall miss latency
system.cpu.dcache.demand_avg_miss_latency::total 55556.889486                       # average overall miss latency
system.cpu.dcache.overall_avg_miss_latency::.cpu.data 55029.248510                       # average overall miss latency
system.cpu.dcache.overall_avg_miss_latency::total 55029.248510                       # average overall miss latency
system.cpu.dcache.blocked_cycles::no_mshrs        95373                       # number of cycles access was blocked
system.cpu.dcache.blocked_cycles::no_targets            0                       # number of cycles access was blocked
system.cpu.dcache.blocked::no_mshrs              3203                       # number of cycles access was blocked
system.cpu.dcache.blocked::no_targets               0                       # number of cycles access was blocked
system.cpu.dcache.avg_blocked_cycles::no_mshrs    29.776147                       # average number of cycles each access was blocked
system.cpu.dcache.avg_blocked_cycles::no_targets          nan                       # average number of cycles each access was blocked
system.cpu.dcache.writebacks::.writebacks       679931                       # number of writebacks
system.cpu.dcache.writebacks::total            679931                       # number of writebacks
system.cpu.dcache.demand_mshr_hits::.cpu.data        55407                       # number of demand (read+write) MSHR hits
system.cpu.dcache.demand_mshr_hits::total        55407                       # number of demand (read+write) MSHR hits
system.cpu.dcache.overall_mshr_hits::.cpu.data        55407                       # number of overall MSHR hits
system.cpu.dcache.overall_mshr_hits::total        55407                       # number of overall MSHR hits
system.cpu.dcache.demand_mshr_misses::.cpu.data       773305                       # number of demand (read+write) MSHR misses
system.cpu.dcache.demand_mshr_misses::total       773305                       # number of demand (read+write) MSHR misses
system.cpu.dcache.overall_mshr_misses::.cpu.data       781248                       # number of overall MSHR misses
system.cpu.dcache.overall_mshr_misses::total       781248                       # number of overall MSHR misses
system.cpu.dcache.demand_mshr_miss_latency::.cpu.data  42757421000                       # number of demand (read+write) MSHR miss cycles
system.cpu.dcache.demand_mshr_miss_latency::total  42757421000                       # number of demand (read+write) MSHR miss cycles
system.cpu.dcache.overall_mshr_miss_latency::.cpu.data  43563326999                       # number of overall MSHR miss cycles
system.cpu.dcache.overall_mshr_miss_latency::total  43563326999                       # number of overall MSHR miss cycles
system.cpu.dcache.demand_mshr_miss_rate::.cpu.data     0.014852                       # mshr miss rate for demand accesses
system.cpu.dcache.demand_mshr_miss_rate::total     0.014852                       # mshr miss rate for demand accesses
system.cpu.dcache.overall_mshr_miss_rate::.cpu.data     0.015002                       # mshr miss rate for overall accesses
system.cpu.dcache.overall_mshr_miss_rate::total     0.015002                       # mshr miss rate for overall accesses
system.cpu.dcache.demand_avg_mshr_miss_latency::.cpu.data 55291.794311                       # average overall mshr miss latency
system.cpu.dcache.demand_avg_mshr_miss_latency::total 55291.794311                       # average overall mshr miss latency
system.cpu.dcache.overall_avg_mshr_miss_latency::.cpu.data 55761.201307                       # average overall mshr miss latency
system.cpu.dcache.overall_avg_mshr_miss_latency::total 55761.201307                       # average overall mshr miss latency
system.cpu.dcache.replacements                 780224                       # number of replacements
system.cpu.dcache.ReadReq_hits::.cpu.data     40666773                       # number of ReadReq hits
system.cpu.dcache.ReadReq_hits::total        40666773                       # number of ReadReq hits
system.cpu.dcache.ReadReq_misses::.cpu.data       452586                       # number of ReadReq misses
system.cpu.dcache.ReadReq_misses::total        452586                       # number of ReadReq misses
system.cpu.dcache.ReadReq_miss_latency::.cpu.data  20383539000                       # number of ReadReq miss cycles
system.cpu.dcache.ReadReq_miss_latency::total  20383539000                       # number of ReadReq miss cycles
system.cpu.dcache.ReadReq_accesses::.cpu.data     41119359                       # number of ReadReq accesses(hits+misses)
system.cpu.dcache.ReadReq_accesses::total     41119359                       # number of ReadReq accesses(hits+misses)
system.cpu.dcache.ReadReq_miss_rate::.cpu.data     0.011007                       # miss rate for ReadReq accesses
system.cpu.dcache.ReadReq_miss_rate::total     0.011007                       # miss rate for ReadReq accesses
system.cpu.dcache.ReadReq_avg_miss_latency::.cpu.data 45037.935332                       # average ReadReq miss latency
system.cpu.dcache.ReadReq_avg_miss_latency::total 45037.935332                       # average ReadReq miss latency
system.cpu.dcache.ReadReq_mshr_hits::.cpu.data         1509                       # number of ReadReq MSHR hits
system.cpu.dcache.ReadReq_mshr_hits::total         1509                       # number of ReadReq MSHR hits
system.cpu.dcache.ReadReq_mshr_misses::.cpu.data       451077                       # number of ReadReq MSHR misses
system.cpu.dcache.ReadReq_mshr_misses::total       451077                       # number of ReadReq MSHR misses
system.cpu.dcache.ReadReq_mshr_miss_latency::.cpu.data  19410071000                       # number of ReadReq MSHR miss cycles
system.cpu.dcache.ReadReq_mshr_miss_latency::total  19410071000                       # number of ReadReq MSHR miss cycles
system.cpu.dcache.ReadReq_mshr_miss_rate::.cpu.data     0.010970                       # mshr miss rate for ReadReq accesses
system.cpu.dcache.ReadReq_mshr_miss_rate::total     0.010970                       # mshr miss rate for ReadReq accesses
system.cpu.dcache.ReadReq_avg_mshr_miss_latency::.cpu.data 43030.504770                       # average ReadReq mshr miss latency
system.cpu.dcache.ReadReq_avg_mshr_miss_latency::total 43030.504770                       # average ReadReq mshr miss latency
system.cpu.dcache.WriteReq_hits::.cpu.data     10572953                       # number of WriteReq hits
system.cpu.dcache.WriteReq_hits::total       10572953                       # number of WriteReq hits
system.cpu.dcache.WriteReq_misses::.cpu.data       376126                       # number of WriteReq misses
system.cpu.dcache.WriteReq_misses::total       376126                       # number of WriteReq misses
system.cpu.dcache.WriteReq_miss_latency::.cpu.data  25657122000                       # number of WriteReq miss cycles
system.cpu.dcache.WriteReq_miss_latency::total  25657122000                       # number of WriteReq miss cycles
system.cpu.dcache.WriteReq_accesses::.cpu.data     10949079                       # number of WriteReq accesses(hits+misses)
system.cpu.dcache.WriteReq_accesses::total     10949079                       # number of WriteReq accesses(hits+misses)
system.cpu.dcache.WriteReq_miss_rate::.cpu.data     0.034352                       # miss rate for WriteReq accesses
system.cpu.dcache.WriteReq_miss_rate::total     0.034352                       # miss rate for WriteReq accesses
system.cpu.dcache.WriteReq_avg_miss_latency::.cpu.data 68214.167593                       # average WriteReq miss latency
system.cpu.dcache.WriteReq_avg_miss_latency::total 68214.167593                       # average WriteReq miss latency
system.cpu.dcache.WriteReq_mshr_hits::.cpu.data        53898                       # number of WriteReq MSHR hits
system.cpu.dcache.WriteReq_mshr_hits::total        53898                       # number of WriteReq MSHR hits
system.cpu.dcache.WriteReq_mshr_misses::.cpu.data       322228                       # number of WriteReq MSHR misses
system.cpu.dcache.WriteReq_mshr_misses::total       322228                       # number of WriteReq MSHR misses
system.cpu.dcache.WriteReq_mshr_miss_latency::.cpu.data  23347350000                       # number of WriteReq MSHR miss cycles
system.cpu.dcache.WriteReq_mshr_miss_latency::total  23347350000                       # number of WriteReq MSHR miss cycles
system.cpu.dcache.WriteReq_mshr_miss_rate::.cpu.data     0.029430                       # mshr miss rate for WriteReq accesses
system.cpu.dcache.WriteReq_mshr_miss_rate::total     0.029430                       # mshr miss rate for WriteReq accesses
system.cpu.dcache.WriteReq_avg_mshr_miss_latency::.cpu.data 72455.993893                       # average WriteReq mshr miss latency
system.cpu.dcache.WriteReq_avg_mshr_miss_latency::total 72455.993893                       # average WriteReq mshr miss latency
system.cpu.dcache.SoftPFReq_hits::.cpu.data          472                       # number of SoftPFReq hits
system.cpu.dcache.SoftPFReq_hits::total           472                       # number of SoftPFReq hits
system.cpu.dcache.SoftPFReq_misses::.cpu.data         7946                       # number of SoftPFReq misses
system.cpu.dcache.SoftPFReq_misses::total         7946                       # number of SoftPFReq misses
system.cpu.dcache.SoftPFReq_accesses::.cpu.data         8418                       # number of SoftPFReq accesses(hits+misses)
system.cpu.dcache.SoftPFReq_accesses::total         8418                       # number of SoftPFReq accesses(hits+misses)
system.cpu.dcache.SoftPFReq_miss_rate::.cpu.data     0.943930                       # miss rate for SoftPFReq accesses
system.cpu.dcache.SoftPFReq_miss_rate::total     0.943930                       # miss rate for SoftPFReq accesses
system.cpu.dcache.SoftPFReq_mshr_misses::.cpu.data         7943                       # number of SoftPFReq MSHR misses
system.cpu.dcache.SoftPFReq_mshr_misses::total         7943                       # number of SoftPFReq MSHR misses
system.cpu.dcache.SoftPFReq_mshr_miss_latency::.cpu.data    805905999                       # number of SoftPFReq MSHR miss cycles
system.cpu.dcache.SoftPFReq_mshr_miss_latency::total    805905999                       # number of SoftPFReq MSHR miss cycles
system.cpu.dcache.SoftPFReq_mshr_miss_rate::.cpu.data     0.943573                       # mshr miss rate for SoftPFReq accesses
system.cpu.dcache.SoftPFReq_mshr_miss_rate::total     0.943573                       # mshr miss rate for SoftPFReq accesses
system.cpu.dcache.SoftPFReq_avg_mshr_miss_latency::.cpu.data 101461.160645                       # average SoftPFReq mshr miss latency
system.cpu.dcache.SoftPFReq_avg_mshr_miss_latency::total 101461.160645                       # average SoftPFReq mshr miss latency
system.cpu.dcache.LoadLockedReq_hits::.cpu.data           38                       # number of LoadLockedReq hits
system.cpu.dcache.LoadLockedReq_hits::total           38                       # number of LoadLockedReq hits
system.cpu.dcache.LoadLockedReq_accesses::.cpu.data           38                       # number of LoadLockedReq accesses(hits+misses)
system.cpu.dcache.LoadLockedReq_accesses::total           38                       # number of LoadLockedReq accesses(hits+misses)
system.cpu.dcache.StoreCondReq_hits::.cpu.data           38                       # number of StoreCondReq hits
system.cpu.dcache.StoreCondReq_hits::total           38                       # number of StoreCondReq hits
system.cpu.dcache.StoreCondReq_accesses::.cpu.data           38                       # number of StoreCondReq accesses(hits+misses)
system.cpu.dcache.StoreCondReq_accesses::total           38                       # number of StoreCondReq accesses(hits+misses)
system.cpu.dcache.power_state.pwrStateResidencyTicks::UNDEFINED 166919738000                       # Cumulative time (in ticks) in various power states
system.cpu.dcache.tags.tagsinuse          1013.003383                       # Cycle average of tags in use
system.cpu.dcache.tags.total_refs            52021522                       # Total number of references to valid blocks.
system.cpu.dcache.tags.sampled_refs            781248                       # Sample count of references to valid blocks.
system.cpu.dcache.tags.avg_refs             66.587719                       # Average number of references to valid blocks.
system.cpu.dcache.tags.warmup_cycle            223000                       # Cycle when the warmup percentage was hit.
system.cpu.dcache.tags.occ_blocks::.cpu.data  1013.003383                       # Average occupied blocks per requestor
system.cpu.dcache.tags.occ_percent::.cpu.data     0.989261                       # Average percentage of cache occupancy
system.cpu.dcache.tags.occ_percent::total     0.989261                       # Average percentage of cache occupancy
system.cpu.dcache.tags.occ_task_id_blocks::1024         1024                       # Occupied blocks per task id
system.cpu.dcache.tags.age_task_id_blocks_1024::0           64                       # Occupied blocks per task id
system.cpu.dcache.tags.age_task_id_blocks_1024::1          196                       # Occupied blocks per task id
system.cpu.dcache.tags.age_task_id_blocks_1024::2          698                       # Occupied blocks per task id
system.cpu.dcache.tags.age_task_id_blocks_1024::3           66                       # Occupied blocks per task id
system.cpu.dcache.tags.occ_task_id_percent::1024            1                       # Percentage of cache occupancy per task id
system.cpu.dcache.tags.tag_accesses          52858180                       # Number of tag accesses
system.cpu.dcache.tags.data_accesses         52858180                       # Number of data accesses
system.cpu.dcache.tags.power_state.pwrStateResidencyTicks::UNDEFINED 166919738000                       # Cumulative time (in ticks) in various power states
system.cpu.dtb.instHits                             0                       # ITB inst hits
system.cpu.dtb.instMisses                           0                       # ITB inst misses
system.cpu.dtb.readHits                             0                       # DTB read hits
system.cpu.dtb.readMisses                           0                       # DTB read misses
system.cpu.dtb.writeHits                            0                       # DTB write hits
system.cpu.dtb.writeMisses                          0                       # DTB write misses
system.cpu.dtb.inserts                              0                       # Number of times an entry is inserted into the TLB
system.cpu.dtb.flushTlb                             0                       # Number of times complete TLB was flushed
system.cpu.dtb.flushTlbMva                          0                       # Number of times TLB was flushed by MVA
system.cpu.dtb.flushTlbMvaAsid                      0                       # Number of times TLB was flushed by MVA & ASID
system.cpu.dtb.flushTlbAsid                         0                       # Number of times TLB was flushed by ASID
system.cpu.dtb.flushedEntries                       0                       # Number of entries that have been flushed from TLB
system.cpu.dtb.alignFaults                          0                       # Number of TLB faults due to alignment restrictions
system.cpu.dtb.prefetchFaults                       0                       # Number of TLB faults due to prefetch
system.cpu.dtb.domainFaults                         0                       # Number of TLB faults due to domain restrictions
system.cpu.dtb.permsFaults                          0                       # Number of TLB faults due to permissions restrictions
system.cpu.dtb.readAccesses                         0                       # DTB read accesses
system.cpu.dtb.writeAccesses                        0                       # DTB write accesses
system.cpu.dtb.instAccesses                         0                       # ITB inst accesses
system.cpu.dtb.hits                                 0                       # Total TLB (inst and data) hits
system.cpu.dtb.misses                               0                       # Total TLB (inst and data) misses
system.cpu.dtb.accesses                             0                       # Total TLB (inst and data) accesses
system.cpu.dtb.stage2_mmu.stage2_tlb.instHits            0                       # ITB inst hits
system.cpu.dtb.stage2_mmu.stage2_tlb.instMisses            0                       # ITB inst misses
system.cpu.dtb.stage2_mmu.stage2_tlb.readHits            0                       # DTB read hits
system.cpu.dtb.stage2_mmu.stage2_tlb.readMisses            0                       # DTB read misses
system.cpu.dtb.stage2_mmu.stage2_tlb.writeHits            0                       # DTB write hits
system.cpu.dtb.stage2_mmu.stage2_tlb.writeMisses            0                       # DTB write misses
system.cpu.dtb.stage2_mmu.stage2_tlb.inserts            0                       # Number of times an entry is inserted into the TLB
system.cpu.dtb.stage2_mmu.stage2_tlb.flushTlb            0                       # Number of times complete TLB was flushed
system.cpu.dtb.stage2_mmu.stage2_tlb.flushTlbMva            0                       # Number of times TLB was flushed by MVA
system.cpu.dtb.stage2_mmu.stage2_tlb.flushTlbMvaAsid            0                       # Number of times TLB was flushed by MVA & ASID
system.cpu.dtb.stage2_mmu.stage2_tlb.flushTlbAsid            0                       # Number of times TLB was flushed by ASID
system.cpu.dtb.stage2_mmu.stage2_tlb.flushedEntries            0                       # Number of entries that have been flushed from TLB
system.cpu.dtb.stage2_mmu.stage2_tlb.alignFaults            0                       # Number of TLB faults due to alignment restrictions
system.cpu.dtb.stage2_mmu.stage2_tlb.prefetchFaults            0                       # Number of TLB faults due to prefetch
system.cpu.dtb.stage2_mmu.stage2_tlb.domainFaults            0                       # Number of TLB faults due to domain restrictions
system.cpu.dtb.stage2_mmu.stage2_tlb.permsFaults            0                       # Number of TLB faults due to permissions restrictions
system.cpu.dtb.stage2_mmu.stage2_tlb.readAccesses            0                       # DTB read accesses
system.cpu.dtb.stage2_mmu.stage2_tlb.writeAccesses            0                       # DTB write accesses
system.cpu.dtb.stage2_mmu.stage2_tlb.instAccesses            0                       # ITB inst accesses
system.cpu.dtb.stage2_mmu.stage2_tlb.hits            0                       # Total TLB (inst and data) hits
system.cpu.dtb.stage2_mmu.stage2_tlb.misses            0                       # Total TLB (inst and data) misses
system.cpu.dtb.stage2_mmu.stage2_tlb.accesses            0                       # Total TLB (inst and data) accesses
system.cpu.dtb.stage2_mmu.stage2_tlb.walker.walks            0                       # Table walker walks requested
system.cpu.dtb.stage2_mmu.stage2_tlb.walker.requestOrigin_Requested::Data            0                       # Table walker requests started/completed, data/inst
system.cpu.dtb.stage2_mmu.stage2_tlb.walker.requestOrigin_Requested::Inst            0                       # Table walker requests started/completed, data/inst
system.cpu.dtb.stage2_mmu.stage2_tlb.walker.requestOrigin_Requested::total            0                       # Table walker requests started/completed, data/inst
system.cpu.dtb.stage2_mmu.stage2_tlb.walker.requestOrigin_Completed::Data            0                       # Table walker requests started/completed, data/inst
system.cpu.dtb.stage2_mmu.stage2_tlb.walker.requestOrigin_Completed::Inst            0                       # Table walker requests started/completed, data/inst
system.cpu.dtb.stage2_mmu.stage2_tlb.walker.requestOrigin_Completed::total            0                       # Table walker requests started/completed, data/inst
system.cpu.dtb.stage2_mmu.stage2_tlb.walker.requestOrigin::total            0                       # Table walker requests started/completed, data/inst
system.cpu.dtb.stage2_mmu.stage2_tlb.walker.power_state.pwrStateResidencyTicks::UNDEFINED 166919738000                       # Cumulative time (in ticks) in various power states
system.cpu.dtb.walker.walks                         0                       # Table walker walks requested
system.cpu.dtb.walker.requestOrigin_Requested::Data            0                       # Table walker requests started/completed, data/inst
system.cpu.dtb.walker.requestOrigin_Requested::Inst            0                       # Table walker requests started/completed, data/inst
system.cpu.dtb.walker.requestOrigin_Requested::total            0                       # Table walker requests started/completed, data/inst
system.cpu.dtb.walker.requestOrigin_Completed::Data            0                       # Table walker requests started/completed, data/inst
system.cpu.dtb.walker.requestOrigin_Completed::Inst            0                       # Table walker requests started/completed, data/inst
system.cpu.dtb.walker.requestOrigin_Completed::total            0                       # Table walker requests started/completed, data/inst
system.cpu.dtb.walker.requestOrigin::total            0                       # Table walker requests started/completed, data/inst
system.cpu.dtb.walker.power_state.pwrStateResidencyTicks::UNDEFINED 166919738000                       # Cumulative time (in ticks) in various power states
system.cpu.fetch2.intInstructions            42685894                       # Number of integer instructions successfully decoded
system.cpu.fetch2.fpInstructions                    0                       # Number of floating point instructions successfully decoded
system.cpu.fetch2.vecInstructions                   0                       # Number of SIMD instructions successfully decoded
system.cpu.fetch2.loadInstructions           43475170                       # Number of memory load instructions successfully decoded
system.cpu.fetch2.storeInstructions          11024926                       # Number of memory store instructions successfully decoded
system.cpu.fetch2.amoInstructions                   0                       # Number of memory atomic instructions successfully decoded
system.cpu.icache.demand_hits::.cpu.inst     10278216                       # number of demand (read+write) hits
system.cpu.icache.demand_hits::total         10278216                       # number of demand (read+write) hits
system.cpu.icache.overall_hits::.cpu.inst     10278216                       # number of overall hits
system.cpu.icache.overall_hits::total        10278216                       # number of overall hits
system.cpu.icache.demand_misses::.cpu.inst          760                       # number of demand (read+write) misses
system.cpu.icache.demand_misses::total            760                       # number of demand (read+write) misses
system.cpu.icache.overall_misses::.cpu.inst          760                       # number of overall misses
system.cpu.icache.overall_misses::total           760                       # number of overall misses
system.cpu.icache.demand_miss_latency::.cpu.inst     72069000                       # number of demand (read+write) miss cycles
system.cpu.icache.demand_miss_latency::total     72069000                       # number of demand (read+write) miss cycles
system.cpu.icache.overall_miss_latency::.cpu.inst     72069000                       # number of overall miss cycles
system.cpu.icache.overall_miss_latency::total     72069000                       # number of overall miss cycles
system.cpu.icache.demand_accesses::.cpu.inst     10278976                       # number of demand (read+write) accesses
system.cpu.icache.demand_accesses::total     10278976                       # number of demand (read+write) accesses
system.cpu.icache.overall_accesses::.cpu.inst     10278976                       # number of overall (read+write) accesses
system.cpu.icache.overall_accesses::total     10278976                       # number of overall (read+write) accesses
system.cpu.icache.demand_miss_rate::.cpu.inst     0.000074                       # miss rate for demand accesses
system.cpu.icache.demand_miss_rate::total     0.000074                       # miss rate for demand accesses
system.cpu.icache.overall_miss_rate::.cpu.inst     0.000074                       # miss rate for overall accesses
system.cpu.icache.overall_miss_rate::total     0.000074                       # miss rate for overall accesses
system.cpu.icache.demand_avg_miss_latency::.cpu.inst 94827.631579                       # average overall miss latency
system.cpu.icache.demand_avg_miss_latency::total 94827.631579                       # average overall miss latency
system.cpu.icache.overall_avg_miss_latency::.cpu.inst 94827.631579                       # average overall miss latency
system.cpu.icache.overall_avg_miss_latency::total 94827.631579                       # average overall miss latency
system.cpu.icache.blocked_cycles::no_mshrs            0                       # number of cycles access was blocked
system.cpu.icache.blocked_cycles::no_targets            0                       # number of cycles access was blocked
system.cpu.icache.blocked::no_mshrs                 0                       # number of cycles access was blocked
system.cpu.icache.blocked::no_targets               0                       # number of cycles access was blocked
system.cpu.icache.avg_blocked_cycles::no_mshrs          nan                       # average number of cycles each access was blocked
system.cpu.icache.avg_blocked_cycles::no_targets          nan                       # average number of cycles each access was blocked
system.cpu.icache.writebacks::.writebacks          245                       # number of writebacks
system.cpu.icache.writebacks::total               245                       # number of writebacks
system.cpu.icache.demand_mshr_misses::.cpu.inst          760                       # number of demand (read+write) MSHR misses
system.cpu.icache.demand_mshr_misses::total          760                       # number of demand (read+write) MSHR misses
system.cpu.icache.overall_mshr_misses::.cpu.inst          760                       # number of overall MSHR misses
system.cpu.icache.overall_mshr_misses::total          760                       # number of overall MSHR misses
system.cpu.icache.demand_mshr_miss_latency::.cpu.inst     70549000                       # number of demand (read+write) MSHR miss cycles
system.cpu.icache.demand_mshr_miss_latency::total     70549000                       # number of demand (read+write) MSHR miss cycles
system.cpu.icache.overall_mshr_miss_latency::.cpu.inst     70549000                       # number of overall MSHR miss cycles
system.cpu.icache.overall_mshr_miss_latency::total     70549000                       # number of overall MSHR miss cycles
system.cpu.icache.demand_mshr_miss_rate::.cpu.inst     0.000074                       # mshr miss rate for demand accesses
system.cpu.icache.demand_mshr_miss_rate::total     0.000074                       # mshr miss rate for demand accesses
system.cpu.icache.overall_mshr_miss_rate::.cpu.inst     0.000074                       # mshr miss rate for overall accesses
system.cpu.icache.overall_mshr_miss_rate::total     0.000074                       # mshr miss rate for overall accesses
system.cpu.icache.demand_avg_mshr_miss_latency::.cpu.inst 92827.631579                       # average overall mshr miss latency
system.cpu.icache.demand_avg_mshr_miss_latency::total 92827.631579                       # average overall mshr miss latency
system.cpu.icache.overall_avg_mshr_miss_latency::.cpu.inst 92827.631579                       # average overall mshr miss latency
system.cpu.icache.overall_avg_mshr_miss_latency::total 92827.631579                       # average overall mshr miss latency
system.cpu.icache.replacements                    245                       # number of replacements
system.cpu.icache.ReadReq_hits::.cpu.inst     10278216                       # number of ReadReq hits
system.cpu.icache.ReadReq_hits::total        10278216                       # number of ReadReq hits
system.cpu.icache.ReadReq_misses::.cpu.inst          760                       # number of ReadReq misses
system.cpu.icache.ReadReq_misses::total           760                       # number of ReadReq misses
system.cpu.icache.ReadReq_miss_latency::.cpu.inst     72069000                       # number of ReadReq miss cycles
system.cpu.icache.ReadReq_miss_latency::total     72069000                       # number of ReadReq miss cycles
system.cpu.icache.ReadReq_accesses::.cpu.inst     10278976                       # number of ReadReq accesses(hits+misses)
system.cpu.icache.ReadReq_accesses::total     10278976                       # number of ReadReq accesses(hits+misses)
system.cpu.icache.ReadReq_miss_rate::.cpu.inst     0.000074                       # miss rate for ReadReq accesses
system.cpu.icache.ReadReq_miss_rate::total     0.000074                       # miss rate for ReadReq accesses
system.cpu.icache.ReadReq_avg_miss_latency::.cpu.inst 94827.631579                       # average ReadReq miss latency
system.cpu.icache.ReadReq_avg_miss_latency::total 94827.631579                       # average ReadReq miss latency
system.cpu.icache.ReadReq_mshr_misses::.cpu.inst          760                       # number of ReadReq MSHR misses
system.cpu.icache.ReadReq_mshr_misses::total          760                       # number of ReadReq MSHR misses
system.cpu.icache.ReadReq_mshr_miss_latency::.cpu.inst     70549000                       # number of ReadReq MSHR miss cycles
system.cpu.icache.ReadReq_mshr_miss_latency::total     70549000                       # number of ReadReq MSHR miss cycles
system.cpu.icache.ReadReq_mshr_miss_rate::.cpu.inst     0.000074                       # mshr miss rate for ReadReq accesses
system.cpu.icache.ReadReq_mshr_miss_rate::total     0.000074                       # mshr miss rate for ReadReq accesses
system.cpu.icache.ReadReq_avg_mshr_miss_latency::.cpu.inst 92827.631579                       # average ReadReq mshr miss latency
system.cpu.icache.ReadReq_avg_mshr_miss_latency::total 92827.631579                       # average ReadReq mshr miss latency
system.cpu.icache.power_state.pwrStateResidencyTicks::UNDEFINED 166919738000                       # Cumulative time (in ticks) in various power states
system.cpu.icache.tags.tagsinuse           420.702932                       # Cycle average of tags in use
system.cpu.icache.tags.total_refs            10278976                       # Total number of references to valid blocks.
system.cpu.icache.tags.sampled_refs               760                       # Sample count of references to valid blocks.
system.cpu.icache.tags.avg_refs          13524.968421                       # Average number of references to valid blocks.
system.cpu.icache.tags.warmup_cycle            108000                       # Cycle when the warmup percentage was hit.
system.cpu.icache.tags.occ_blocks::.cpu.inst   420.702932                       # Average occupied blocks per requestor
system.cpu.icache.tags.occ_percent::.cpu.inst     0.410843                       # Average percentage of cache occupancy
system.cpu.icache.tags.occ_percent::total     0.410843                       # Average percentage of cache occupancy
system.cpu.icache.tags.occ_task_id_blocks::1024          515                       # Occupied blocks per task id
system.cpu.icache.tags.age_task_id_blocks_1024::4          515                       # Occupied blocks per task id
system.cpu.icache.tags.occ_task_id_percent::1024     0.502930                       # Percentage of cache occupancy per task id
system.cpu.icache.tags.tag_accesses          10279736                       # Number of tag accesses
system.cpu.icache.tags.data_accesses         10279736                       # Number of data accesses
system.cpu.icache.tags.power_state.pwrStateResidencyTicks::UNDEFINED 166919738000                       # Cumulative time (in ticks) in various power states
system.cpu.itb.instHits                             0                       # ITB inst hits
system.cpu.itb.instMisses                           0                       # ITB inst misses
system.cpu.itb.readHits                             0                       # DTB read hits
system.cpu.itb.readMisses                           0                       # DTB read misses
system.cpu.itb.writeHits                            0                       # DTB write hits
system.cpu.itb.writeMisses                          0                       # DTB write misses
system.cpu.itb.inserts                              0                       # Number of times an entry is inserted into the TLB
system.cpu.itb.flushTlb                             0                       # Number of times complete TLB was flushed
system.cpu.itb.flushTlbMva                          0                       # Number of times TLB was flushed by MVA
system.cpu.itb.flushTlbMvaAsid                      0                       # Number of times TLB was flushed by MVA & ASID
system.cpu.itb.flushTlbAsid                         0                       # Number of times TLB was flushed by ASID
system.cpu.itb.flushedEntries                       0                       # Number of entries that have been flushed from TLB
system.cpu.itb.alignFaults                          0                       # Number of TLB faults due to alignment restrictions
system.cpu.itb.prefetchFaults                       0                       # Number of TLB faults due to prefetch
system.cpu.itb.domainFaults                         0                       # Number of TLB faults due to domain restrictions
system.cpu.itb.permsFaults                          0                       # Number of TLB faults due to permissions restrictions
system.cpu.itb.readAccesses                         0                       # DTB read accesses
system.cpu.itb.writeAccesses                        0                       # DTB write accesses
system.cpu.itb.instAccesses                         0                       # ITB inst accesses
system.cpu.itb.hits                                 0                       # Total TLB (inst and data) hits
system.cpu.itb.misses                               0                       # Total TLB (inst and data) misses
system.cpu.itb.accesses                             0                       # Total TLB (inst and data) accesses
system.cpu.itb.stage2_mmu.stage2_tlb.instHits            0                       # ITB inst hits
system.cpu.itb.stage2_mmu.stage2_tlb.instMisses            0                       # ITB inst misses
system.cpu.itb.stage2_mmu.stage2_tlb.readHits            0                       # DTB read hits
system.cpu.itb.stage2_mmu.stage2_tlb.readMisses            0                       # DTB read misses
system.cpu.itb.stage2_mmu.stage2_tlb.writeHits            0                       # DTB write hits
system.cpu.itb.stage2_mmu.stage2_tlb.writeMisses            0                       # DTB write misses
system.cpu.itb.stage2_mmu.stage2_tlb.inserts            0                       # Number of times an entry is inserted into the TLB
system.cpu.itb.stage2_mmu.stage2_tlb.flushTlb            0                       # Number of times complete TLB was flushed
system.cpu.itb.stage2_mmu.stage2_tlb.flushTlbMva            0                       # Number of times TLB was flushed by MVA
system.cpu.itb.stage2_mmu.stage2_tlb.flushTlbMvaAsid            0                       # Number of times TLB was flushed by MVA & ASID
system.cpu.itb.stage2_mmu.stage2_tlb.flushTlbAsid            0                       # Number of times TLB was flushed by ASID
system.cpu.itb.stage2_mmu.stage2_tlb.flushedEntries            0                       # Number of entries that have been flushed from TLB
system.cpu.itb.stage2_mmu.stage2_tlb.alignFaults            0                       # Number of TLB faults due to alignment restrictions
system.cpu.itb.stage2_mmu.stage2_tlb.prefetchFaults            0                       # Number of TLB faults due to prefetch
system.cpu.itb.stage2_mmu.stage2_tlb.domainFaults            0                       # Number of TLB faults due to domain restrictions
system.cpu.itb.stage2_mmu.stage2_tlb.permsFaults            0                       # Number of TLB faults due to permissions restrictions
system.cpu.itb.stage2_mmu.stage2_tlb.readAccesses            0                       # DTB read accesses
system.cpu.itb.stage2_mmu.stage2_tlb.writeAccesses            0                       # DTB write accesses
system.cpu.itb.stage2_mmu.stage2_tlb.instAccesses            0                       # ITB inst accesses
system.cpu.itb.stage2_mmu.stage2_tlb.hits            0                       # Total TLB (inst and data) hits
system.cpu.itb.stage2_mmu.stage2_tlb.misses            0                       # Total TLB (inst and data) misses
system.cpu.itb.stage2_mmu.stage2_tlb.accesses            0                       # Total TLB (inst and data) accesses
system.cpu.itb.stage2_mmu.stage2_tlb.walker.walks            0                       # Table walker walks requested
system.cpu.itb.stage2_mmu.stage2_tlb.walker.requestOrigin_Requested::Data            0                       # Table walker requests started/completed, data/inst
system.cpu.itb.stage2_mmu.stage2_tlb.walker.requestOrigin_Requested::Inst            0                       # Table walker requests started/completed, data/inst
system.cpu.itb.stage2_mmu.stage2_tlb.walker.requestOrigin_Requested::total            0                       # Table walker requests started/completed, data/inst
system.cpu.itb.stage2_mmu.stage2_tlb.walker.requestOrigin_Completed::Data            0                       # Table walker requests started/completed, data/inst
system.cpu.itb.stage2_mmu.stage2_tlb.walker.requestOrigin_Completed::Inst            0                       # Table walker requests started/completed, data/inst
system.cpu.itb.stage2_mmu.stage2_tlb.walker.requestOrigin_Completed::total            0                       # Table walker requests started/completed, data/inst
system.cpu.itb.stage2_mmu.stage2_tlb.walker.requestOrigin::total            0                       # Table walker requests started/completed, data/inst
system.cpu.itb.stage2_mmu.stage2_tlb.walker.power_state.pwrStateResidencyTicks::UNDEFINED 166919738000                       # Cumulative time (in ticks) in various power states
system.cpu.itb.walker.walks                         0                       # Table walker walks requested
system.cpu.itb.walker.requestOrigin_Requested::Data            0                       # Table walker requests started/completed, data/inst
system.cpu.itb.walker.requestOrigin_Requested::Inst            0                       # Table walker requests started/completed, data/inst
system.cpu.itb.walker.requestOrigin_Requested::total            0                       # Table walker requests started/completed, data/inst
system.cpu.itb.walker.requestOrigin_Completed::Data            0                       # Table walker requests started/completed, data/inst
system.cpu.itb.walker.requestOrigin_Completed::Inst            0                       # Table walker requests started/completed, data/inst
system.cpu.itb.walker.requestOrigin_Completed::total            0                       # Table walker requests started/completed, data/inst
system.cpu.itb.walker.requestOrigin::total            0                       # Table walker requests started/completed, data/inst
system.cpu.itb.walker.power_state.pwrStateResidencyTicks::UNDEFINED 166919738000                       # Cumulative time (in ticks) in various power states
system.cpu.power_state.pwrStateResidencyTicks::ON 166919738000                       # Cumulative time (in ticks) in various power states
system.cpu.thread_0.numInsts                100000001                       # Number of Instructions committed
system.cpu.thread_0.numOps                  100196356                       # Number of Ops committed
system.cpu.thread_0.numMemRefs                      0                       # Number of Memory References
system.cpu_clk_domain.clock                      1000                       # Clock period in ticks
system.cpu_voltage_domain.voltage                   1                       # Voltage in Volts
system.l2.demand_hits::.cpu.inst                   93                       # number of demand (read+write) hits
system.l2.demand_hits::.cpu.data               494592                       # number of demand (read+write) hits
system.l2.demand_hits::total                   494685                       # number of demand (read+write) hits
system.l2.overall_hits::.cpu.inst                  93                       # number of overall hits
system.l2.overall_hits::.cpu.data              494592                       # number of overall hits
system.l2.overall_hits::total                  494685                       # number of overall hits
system.l2.demand_misses::.cpu.inst                667                       # number of demand (read+write) misses
system.l2.demand_misses::.cpu.data             286656                       # number of demand (read+write) misses
system.l2.demand_misses::total                 287323                       # number of demand (read+write) misses
system.l2.overall_misses::.cpu.inst               667                       # number of overall misses
system.l2.overall_misses::.cpu.data            286656                       # number of overall misses
system.l2.overall_misses::total                287323                       # number of overall misses
system.l2.demand_miss_latency::.cpu.inst     66275000                       # number of demand (read+write) miss cycles
system.l2.demand_miss_latency::.cpu.data  30569326000                       # number of demand (read+write) miss cycles
system.l2.demand_miss_latency::total      30635601000                       # number of demand (read+write) miss cycles
system.l2.overall_miss_latency::.cpu.inst     66275000                       # number of overall miss cycles
system.l2.overall_miss_latency::.cpu.data  30569326000                       # number of overall miss cycles
system.l2.overall_miss_latency::total     30635601000                       # number of overall miss cycles
system.l2.demand_accesses::.cpu.inst              760                       # number of demand (read+write) accesses
system.l2.demand_accesses::.cpu.data           781248                       # number of demand (read+write) accesses
system.l2.demand_accesses::total               782008                       # number of demand (read+write) accesses
system.l2.overall_accesses::.cpu.inst             760                       # number of overall (read+write) accesses
system.l2.overall_accesses::.cpu.data          781248                       # number of overall (read+write) accesses
system.l2.overall_accesses::total              782008                       # number of overall (read+write) accesses
system.l2.demand_miss_rate::.cpu.inst        0.877632                       # miss rate for demand accesses
system.l2.demand_miss_rate::.cpu.data        0.366921                       # miss rate for demand accesses
system.l2.demand_miss_rate::total            0.367417                       # miss rate for demand accesses
system.l2.overall_miss_rate::.cpu.inst       0.877632                       # miss rate for overall accesses
system.l2.overall_miss_rate::.cpu.data       0.366921                       # miss rate for overall accesses
system.l2.overall_miss_rate::total           0.367417                       # miss rate for overall accesses
system.l2.demand_avg_miss_latency::.cpu.inst 99362.818591                       # average overall miss latency
system.l2.demand_avg_miss_latency::.cpu.data 106641.151764                       # average overall miss latency
system.l2.demand_avg_miss_latency::total 106624.255629                       # average overall miss latency
system.l2.overall_avg_miss_latency::.cpu.inst 99362.818591                       # average overall miss latency
system.l2.overall_avg_miss_latency::.cpu.data 106641.151764                       # average overall miss latency
system.l2.overall_avg_miss_latency::total 106624.255629                       # average overall miss latency
system.l2.blocked_cycles::no_mshrs                  0                       # number of cycles access was blocked
system.l2.blocked_cycles::no_targets                0                       # number of cycles access was blocked
system.l2.blocked::no_mshrs                         0                       # number of cycles access was blocked
system.l2.blocked::no_targets                       0                       # number of cycles access was blocked
system.l2.avg_blocked_cycles::no_mshrs            nan                       # average number of cycles each access was blocked
system.l2.avg_blocked_cycles::no_targets          nan                       # average number of cycles each access was blocked
system.l2.writebacks::.writebacks              199648                       # number of writebacks
system.l2.writebacks::total                    199648                       # number of writebacks
system.l2.demand_mshr_hits::.cpu.data               5                       # number of demand (read+write) MSHR hits
system.l2.demand_mshr_hits::total                   5                       # number of demand (read+write) MSHR hits
system.l2.overall_mshr_hits::.cpu.data              5                       # number of overall MSHR hits
system.l2.overall_mshr_hits::total                  5                       # number of overall MSHR hits
system.l2.demand_mshr_misses::.cpu.inst           667                       # number of demand (read+write) MSHR misses
system.l2.demand_mshr_misses::.cpu.data        286651                       # number of demand (read+write) MSHR misses
system.l2.demand_mshr_misses::total            287318                       # number of demand (read+write) MSHR misses
system.l2.overall_mshr_misses::.cpu.inst          667                       # number of overall MSHR misses
system.l2.overall_mshr_misses::.cpu.data       286651                       # number of overall MSHR misses
system.l2.overall_mshr_misses::total           287318                       # number of overall MSHR misses
system.l2.demand_mshr_miss_latency::.cpu.inst     52935000                       # number of demand (read+write) MSHR miss cycles
system.l2.demand_mshr_miss_latency::.cpu.data  24835926000                       # number of demand (read+write) MSHR miss cycles
system.l2.demand_mshr_miss_latency::total  24888861000                       # number of demand (read+write) MSHR miss cycles
system.l2.overall_mshr_miss_latency::.cpu.inst     52935000                       # number of overall MSHR miss cycles
system.l2.overall_mshr_miss_latency::.cpu.data  24835926000                       # number of overall MSHR miss cycles
system.l2.overall_mshr_miss_latency::total  24888861000                       # number of overall MSHR miss cycles
system.l2.demand_mshr_miss_rate::.cpu.inst     0.877632                       # mshr miss rate for demand accesses
system.l2.demand_mshr_miss_rate::.cpu.data     0.366914                       # mshr miss rate for demand accesses
system.l2.demand_mshr_miss_rate::total       0.367411                       # mshr miss rate for demand accesses
system.l2.overall_mshr_miss_rate::.cpu.inst     0.877632                       # mshr miss rate for overall accesses
system.l2.overall_mshr_miss_rate::.cpu.data     0.366914                       # mshr miss rate for overall accesses
system.l2.overall_mshr_miss_rate::total      0.367411                       # mshr miss rate for overall accesses
system.l2.demand_avg_mshr_miss_latency::.cpu.inst 79362.818591                       # average overall mshr miss latency
system.l2.demand_avg_mshr_miss_latency::.cpu.data 86641.686232                       # average overall mshr miss latency
system.l2.demand_avg_mshr_miss_latency::total 86624.788562                       # average overall mshr miss latency
system.l2.overall_avg_mshr_miss_latency::.cpu.inst 79362.818591                       # average overall mshr miss latency
system.l2.overall_avg_mshr_miss_latency::.cpu.data 86641.686232                       # average overall mshr miss latency
system.l2.overall_avg_mshr_miss_latency::total 86624.788562                       # average overall mshr miss latency
system.l2.replacements                         288135                       # number of replacements
system.l2.WritebackDirty_hits::.writebacks       679931                       # number of WritebackDirty hits
system.l2.WritebackDirty_hits::total           679931                       # number of WritebackDirty hits
system.l2.WritebackDirty_accesses::.writebacks       679931                       # number of WritebackDirty accesses(hits+misses)
system.l2.WritebackDirty_accesses::total       679931                       # number of WritebackDirty accesses(hits+misses)
system.l2.WritebackClean_hits::.writebacks          232                       # number of WritebackClean hits
system.l2.WritebackClean_hits::total              232                       # number of WritebackClean hits
system.l2.WritebackClean_accesses::.writebacks          232                       # number of WritebackClean accesses(hits+misses)
system.l2.WritebackClean_accesses::total          232                       # number of WritebackClean accesses(hits+misses)
system.l2.CleanEvict_mshr_misses::.writebacks         4664                       # number of CleanEvict MSHR misses
system.l2.CleanEvict_mshr_misses::total          4664                       # number of CleanEvict MSHR misses
system.l2.CleanEvict_mshr_miss_rate::.writebacks          inf                       # mshr miss rate for CleanEvict accesses
system.l2.CleanEvict_mshr_miss_rate::total          inf                       # mshr miss rate for CleanEvict accesses
system.l2.ReadExReq_hits::.cpu.data            145494                       # number of ReadExReq hits
system.l2.ReadExReq_hits::total                145494                       # number of ReadExReq hits
system.l2.ReadExReq_misses::.cpu.data          176825                       # number of ReadExReq misses
system.l2.ReadExReq_misses::total              176825                       # number of ReadExReq misses
system.l2.ReadExReq_miss_latency::.cpu.data  19223352000                       # number of ReadExReq miss cycles
system.l2.ReadExReq_miss_latency::total   19223352000                       # number of ReadExReq miss cycles
system.l2.ReadExReq_accesses::.cpu.data        322319                       # number of ReadExReq accesses(hits+misses)
system.l2.ReadExReq_accesses::total            322319                       # number of ReadExReq accesses(hits+misses)
system.l2.ReadExReq_miss_rate::.cpu.data     0.548602                       # miss rate for ReadExReq accesses
system.l2.ReadExReq_miss_rate::total         0.548602                       # miss rate for ReadExReq accesses
system.l2.ReadExReq_avg_miss_latency::.cpu.data 108713.994062                       # average ReadExReq miss latency
system.l2.ReadExReq_avg_miss_latency::total 108713.994062                       # average ReadExReq miss latency
system.l2.ReadExReq_mshr_misses::.cpu.data       176825                       # number of ReadExReq MSHR misses
system.l2.ReadExReq_mshr_misses::total         176825                       # number of ReadExReq MSHR misses
system.l2.ReadExReq_mshr_miss_latency::.cpu.data  15686852000                       # number of ReadExReq MSHR miss cycles
system.l2.ReadExReq_mshr_miss_latency::total  15686852000                       # number of ReadExReq MSHR miss cycles
system.l2.ReadExReq_mshr_miss_rate::.cpu.data     0.548602                       # mshr miss rate for ReadExReq accesses
system.l2.ReadExReq_mshr_miss_rate::total     0.548602                       # mshr miss rate for ReadExReq accesses
system.l2.ReadExReq_avg_mshr_miss_latency::.cpu.data 88713.994062                       # average ReadExReq mshr miss latency
system.l2.ReadExReq_avg_mshr_miss_latency::total 88713.994062                       # average ReadExReq mshr miss latency
system.l2.ReadCleanReq_hits::.cpu.inst             93                       # number of ReadCleanReq hits
system.l2.ReadCleanReq_hits::total                 93                       # number of ReadCleanReq hits
system.l2.ReadCleanReq_misses::.cpu.inst          667                       # number of ReadCleanReq misses
system.l2.ReadCleanReq_misses::total              667                       # number of ReadCleanReq misses
system.l2.ReadCleanReq_miss_latency::.cpu.inst     66275000                       # number of ReadCleanReq miss cycles
system.l2.ReadCleanReq_miss_latency::total     66275000                       # number of ReadCleanReq miss cycles
system.l2.ReadCleanReq_accesses::.cpu.inst          760                       # number of ReadCleanReq accesses(hits+misses)
system.l2.ReadCleanReq_accesses::total            760                       # number of ReadCleanReq accesses(hits+misses)
system.l2.ReadCleanReq_miss_rate::.cpu.inst     0.877632                       # miss rate for ReadCleanReq accesses
system.l2.ReadCleanReq_miss_rate::total      0.877632                       # miss rate for ReadCleanReq accesses
system.l2.ReadCleanReq_avg_miss_latency::.cpu.inst 99362.818591                       # average ReadCleanReq miss latency
system.l2.ReadCleanReq_avg_miss_latency::total 99362.818591                       # average ReadCleanReq miss latency
system.l2.ReadCleanReq_mshr_misses::.cpu.inst          667                       # number of ReadCleanReq MSHR misses
system.l2.ReadCleanReq_mshr_misses::total          667                       # number of ReadCleanReq MSHR misses
system.l2.ReadCleanReq_mshr_miss_latency::.cpu.inst     52935000                       # number of ReadCleanReq MSHR miss cycles
system.l2.ReadCleanReq_mshr_miss_latency::total     52935000                       # number of ReadCleanReq MSHR miss cycles
system.l2.ReadCleanReq_mshr_miss_rate::.cpu.inst     0.877632                       # mshr miss rate for ReadCleanReq accesses
system.l2.ReadCleanReq_mshr_miss_rate::total     0.877632                       # mshr miss rate for ReadCleanReq accesses
system.l2.ReadCleanReq_avg_mshr_miss_latency::.cpu.inst 79362.818591                       # average ReadCleanReq mshr miss latency
system.l2.ReadCleanReq_avg_mshr_miss_latency::total 79362.818591                       # average ReadCleanReq mshr miss latency
system.l2.ReadSharedReq_hits::.cpu.data        349098                       # number of ReadSharedReq hits
system.l2.ReadSharedReq_hits::total            349098                       # number of ReadSharedReq hits
system.l2.ReadSharedReq_misses::.cpu.data       109831                       # number of ReadSharedReq misses
system.l2.ReadSharedReq_misses::total          109831                       # number of ReadSharedReq misses
system.l2.ReadSharedReq_miss_latency::.cpu.data  11345974000                       # number of ReadSharedReq miss cycles
system.l2.ReadSharedReq_miss_latency::total  11345974000                       # number of ReadSharedReq miss cycles
system.l2.ReadSharedReq_accesses::.cpu.data       458929                       # number of ReadSharedReq accesses(hits+misses)
system.l2.ReadSharedReq_accesses::total        458929                       # number of ReadSharedReq accesses(hits+misses)
system.l2.ReadSharedReq_miss_rate::.cpu.data     0.239320                       # miss rate for ReadSharedReq accesses
system.l2.ReadSharedReq_miss_rate::total     0.239320                       # miss rate for ReadSharedReq accesses
system.l2.ReadSharedReq_avg_miss_latency::.cpu.data 103303.930584                       # average ReadSharedReq miss latency
system.l2.ReadSharedReq_avg_miss_latency::total 103303.930584                       # average ReadSharedReq miss latency
system.l2.ReadSharedReq_mshr_hits::.cpu.data            5                       # number of ReadSharedReq MSHR hits
system.l2.ReadSharedReq_mshr_hits::total            5                       # number of ReadSharedReq MSHR hits
system.l2.ReadSharedReq_mshr_misses::.cpu.data       109826                       # number of ReadSharedReq MSHR misses
system.l2.ReadSharedReq_mshr_misses::total       109826                       # number of ReadSharedReq MSHR misses
system.l2.ReadSharedReq_mshr_miss_latency::.cpu.data   9149074000                       # number of ReadSharedReq MSHR miss cycles
system.l2.ReadSharedReq_mshr_miss_latency::total   9149074000                       # number of ReadSharedReq MSHR miss cycles
system.l2.ReadSharedReq_mshr_miss_rate::.cpu.data     0.239309                       # mshr miss rate for ReadSharedReq accesses
system.l2.ReadSharedReq_mshr_miss_rate::total     0.239309                       # mshr miss rate for ReadSharedReq accesses
system.l2.ReadSharedReq_avg_mshr_miss_latency::.cpu.data 83305.173638                       # average ReadSharedReq mshr miss latency
system.l2.ReadSharedReq_avg_mshr_miss_latency::total 83305.173638                       # average ReadSharedReq mshr miss latency
system.l2.power_state.pwrStateResidencyTicks::UNDEFINED 166919738000                       # Cumulative time (in ticks) in various power states
system.l2.tags.tagsinuse                  8085.224964                       # Cycle average of tags in use
system.l2.tags.total_refs                     1557144                       # Total number of references to valid blocks.
system.l2.tags.sampled_refs                    296327                       # Sample count of references to valid blocks.
system.l2.tags.avg_refs                      5.254816                       # Average number of references to valid blocks.
system.l2.tags.warmup_cycle                     87000                       # Cycle when the warmup percentage was hit.
system.l2.tags.occ_blocks::.writebacks     174.846386                       # Average occupied blocks per requestor
system.l2.tags.occ_blocks::.cpu.inst        16.071956                       # Average occupied blocks per requestor
system.l2.tags.occ_blocks::.cpu.data      7894.306622                       # Average occupied blocks per requestor
system.l2.tags.occ_percent::.writebacks      0.021344                       # Average percentage of cache occupancy
system.l2.tags.occ_percent::.cpu.inst        0.001962                       # Average percentage of cache occupancy
system.l2.tags.occ_percent::.cpu.data        0.963660                       # Average percentage of cache occupancy
system.l2.tags.occ_percent::total            0.986966                       # Average percentage of cache occupancy
system.l2.tags.occ_task_id_blocks::1024          8192                       # Occupied blocks per task id
system.l2.tags.age_task_id_blocks_1024::1          227                       # Occupied blocks per task id
system.l2.tags.age_task_id_blocks_1024::2         2326                       # Occupied blocks per task id
system.l2.tags.age_task_id_blocks_1024::3         5067                       # Occupied blocks per task id
system.l2.tags.age_task_id_blocks_1024::4          572                       # Occupied blocks per task id
system.l2.tags.occ_task_id_percent::1024            1                       # Percentage of cache occupancy per task id
system.l2.tags.tag_accesses                   3419953                       # Number of tag accesses
system.l2.tags.data_accesses                  3419953                       # Number of data accesses
system.l2.tags.power_state.pwrStateResidencyTicks::UNDEFINED 166919738000                       # Cumulative time (in ticks) in various power states
system.mem_ctrls.avgPriority_.writebacks::samples    199623.00                       # Average QoS priority value for accepted requests
system.mem_ctrls.avgPriority_.cpu.inst::samples       667.00                       # Average QoS priority value for accepted requests
system.mem_ctrls.avgPriority_.cpu.data::samples    285727.00                       # Average QoS priority value for accepted requests
system.mem_ctrls.priorityMinLatency      0.000000018750                       # per QoS priority minimum request to response latency (s)
system.mem_ctrls.priorityMaxLatency      0.005688196500                       # per QoS priority maximum request to response latency (s)
system.mem_ctrls.numReadWriteTurnArounds        11707                       # Number of turnarounds from READ to WRITE
system.mem_ctrls.numWriteReadTurnArounds        11707                       # Number of turnarounds from WRITE to READ
system.mem_ctrls.numStayReadState              802648                       # Number of times bus staying in READ state
system.mem_ctrls.numStayWriteState             188230                       # Number of times bus staying in WRITE state
system.mem_ctrls.readReqs                      287318                       # Number of read requests accepted
system.mem_ctrls.writeReqs                     199648                       # Number of write requests accepted
system.mem_ctrls.readBursts                    287318                       # Number of controller read bursts, including those serviced by the write queue
system.mem_ctrls.writeBursts                   199648                       # Number of controller write bursts, including those merged in the write queue
system.mem_ctrls.servicedByWrQ                    924                       # Number of controller read bursts serviced by the write queue
system.mem_ctrls.mergedWrBursts                    25                       # Number of controller write bursts merged with an existing one
system.mem_ctrls.neitherReadNorWriteReqs            0                       # Number of requests that are neither read nor write
system.mem_ctrls.avgRdQLen                       1.05                       # Average read queue length when enqueuing
system.mem_ctrls.avgWrQLen                      24.65                       # Average write queue length when enqueuing
system.mem_ctrls.numRdRetry                         0                       # Number of times read queue was full causing retry
system.mem_ctrls.numWrRetry                         0                       # Number of times write queue was full causing retry
system.mem_ctrls.readPktSize::0                     0                       # Read request sizes (log2)
system.mem_ctrls.readPktSize::1                     0                       # Read request sizes (log2)
system.mem_ctrls.readPktSize::2                     0                       # Read request sizes (log2)
system.mem_ctrls.readPktSize::3                     0                       # Read request sizes (log2)
system.mem_ctrls.readPktSize::4                     0                       # Read request sizes (log2)
system.mem_ctrls.readPktSize::5                     0                       # Read request sizes (log2)
system.mem_ctrls.readPktSize::6                287318                       # Read request sizes (log2)
system.mem_ctrls.writePktSize::0                    0                       # Write request sizes (log2)
system.mem_ctrls.writePktSize::1                    0                       # Write request sizes (log2)
system.mem_ctrls.writePktSize::2                    0                       # Write request sizes (log2)
system.mem_ctrls.writePktSize::3                    0                       # Write request sizes (log2)
system.mem_ctrls.writePktSize::4                    0                       # Write request sizes (log2)
system.mem_ctrls.writePktSize::5                    0                       # Write request sizes (log2)
system.mem_ctrls.writePktSize::6               199648                       # Write request sizes (log2)
system.mem_ctrls.rdQLenPdf::0                  231751                       # What read queue length does an incoming req see
system.mem_ctrls.rdQLenPdf::1                   54364                       # What read queue length does an incoming req see
system.mem_ctrls.rdQLenPdf::2                     156                       # What read queue length does an incoming req see
system.mem_ctrls.rdQLenPdf::3                     122                       # What read queue length does an incoming req see
system.mem_ctrls.rdQLenPdf::4                       1                       # What read queue length does an incoming req see
system.mem_ctrls.rdQLenPdf::5                       0                       # What read queue length does an incoming req see
system.mem_ctrls.rdQLenPdf::6                       0                       # What read queue length does an incoming req see
system.mem_ctrls.rdQLenPdf::7                       0                       # What read queue length does an incoming req see
system.mem_ctrls.rdQLenPdf::8                       0                       # What read queue length does an incoming req see
[...]
system.mem_ctrls.dram.bw_write::.writebacks     76548598                       # Write bandwidth from this memory (bytes/s)
system.mem_ctrls.dram.bw_write::total        76548598                       # Write bandwidth from this memory (bytes/s)
system.mem_ctrls.dram.bw_total::.writebacks     76548598                       # Total bandwidth to/from this memory (bytes/s)
system.mem_ctrls.dram.bw_total::.cpu.inst       255740                       # Total bandwidth to/from this memory (bytes/s)
system.mem_ctrls.dram.bw_total::.cpu.data    109907098                       # Total bandwidth to/from this memory (bytes/s)
system.mem_ctrls.dram.bw_total::total       186711436                       # Total bandwidth to/from this memory (bytes/s)
system.mem_ctrls.dram.readBursts               286394                       # Number of DRAM read bursts
system.mem_ctrls.dram.writeBursts              199595                       # Number of DRAM write bursts
system.mem_ctrls.dram.perBankRdBursts::0        17420                       # Per bank write bursts
system.mem_ctrls.dram.perBankRdBursts::1        17635                       # Per bank write bursts
system.mem_ctrls.dram.perBankRdBursts::2        17356                       # Per bank write bursts
system.mem_ctrls.dram.perBankRdBursts::3        17188                       # Per bank write bursts
system.mem_ctrls.dram.perBankRdBursts::4        18333                       # Per bank write bursts
system.mem_ctrls.dram.perBankRdBursts::5        17170                       # Per bank write bursts
system.mem_ctrls.dram.perBankRdBursts::6        18154                       # Per bank write bursts
system.mem_ctrls.dram.perBankRdBursts::7        18898                       # Per bank write bursts
system.mem_ctrls.dram.perBankRdBursts::8        19131                       # Per bank write bursts
system.mem_ctrls.dram.perBankRdBursts::9        17692                       # Per bank write bursts
system.mem_ctrls.dram.perBankRdBursts::10        16489                       # Per bank write bursts
system.mem_ctrls.dram.perBankRdBursts::11        18966                       # Per bank write bursts
system.mem_ctrls.dram.perBankRdBursts::12        17439                       # Per bank write bursts
system.mem_ctrls.dram.perBankRdBursts::13        18343                       # Per bank write bursts
system.mem_ctrls.dram.perBankRdBursts::14        18154                       # Per bank write bursts
system.mem_ctrls.dram.perBankRdBursts::15        18026                       # Per bank write bursts
system.mem_ctrls.dram.perBankWrBursts::0        11792                       # Per bank write bursts
system.mem_ctrls.dram.perBankWrBursts::1        12050                       # Per bank write bursts
system.mem_ctrls.dram.perBankWrBursts::2        11827                       # Per bank write bursts
system.mem_ctrls.dram.perBankWrBursts::3        11709                       # Per bank write bursts
system.mem_ctrls.dram.perBankWrBursts::4        12757                       # Per bank write bursts
system.mem_ctrls.dram.perBankWrBursts::5        11987                       # Per bank write bursts
system.mem_ctrls.dram.perBankWrBursts::6        12835                       # Per bank write bursts
system.mem_ctrls.dram.perBankWrBursts::7        13575                       # Per bank write bursts
system.mem_ctrls.dram.perBankWrBursts::8        13871                       # Per bank write bursts
system.mem_ctrls.dram.perBankWrBursts::9        12612                       # Per bank write bursts
system.mem_ctrls.dram.perBankWrBursts::10        11166                       # Per bank write bursts
system.mem_ctrls.dram.perBankWrBursts::11        13611                       # Per bank write bursts
system.mem_ctrls.dram.perBankWrBursts::12        11853                       # Per bank write bursts
system.mem_ctrls.dram.perBankWrBursts::13        12787                       # Per bank write bursts
system.mem_ctrls.dram.perBankWrBursts::14        12592                       # Per bank write bursts
system.mem_ctrls.dram.perBankWrBursts::15        12571                       # Per bank write bursts
system.mem_ctrls.dram.totQLat              4739020250                       # Total ticks spent queuing
system.mem_ctrls.dram.totBusLat            1431970000                       # Total ticks spent in databus transfers
system.mem_ctrls.dram.totMemAccLat        10108907750                       # Total ticks spent from burst creation until serviced by the DRAM
system.mem_ctrls.dram.avgQLat                16547.21                       # Average queueing delay per DRAM burst
system.mem_ctrls.dram.avgBusLat               5000.00                       # Average bus latency per DRAM burst
system.mem_ctrls.dram.avgMemAccLat           35297.21                       # Average memory access latency per DRAM burst
system.mem_ctrls.dram.readRowHits              145829                       # Number of row buffer hits during reads
system.mem_ctrls.dram.writeRowHits             101851                       # Number of row buffer hits during writes
system.mem_ctrls.dram.readRowHitRate            50.92                       # Row buffer hit rate for reads
system.mem_ctrls.dram.writeRowHitRate           51.03                       # Row buffer hit rate for writes
system.mem_ctrls.dram.bytesPerActivate::samples       238309                       # Bytes accessed per row activation
system.mem_ctrls.dram.bytesPerActivate::mean   130.516665                       # Bytes accessed per row activation
system.mem_ctrls.dram.bytesPerActivate::gmean    88.162736                       # Bytes accessed per row activation
system.mem_ctrls.dram.bytesPerActivate::stdev   188.812341                       # Bytes accessed per row activation
system.mem_ctrls.dram.bytesPerActivate::0-127       183714     77.09%     77.09% # Bytes accessed per row activation
system.mem_ctrls.dram.bytesPerActivate::128-255        29623     12.43%     89.52% # Bytes accessed per row activation
system.mem_ctrls.dram.bytesPerActivate::256-383         5809      2.44%     91.96% # Bytes accessed per row activation
system.mem_ctrls.dram.bytesPerActivate::384-511         1526      0.64%     92.60% # Bytes accessed per row activation
system.mem_ctrls.dram.bytesPerActivate::512-639         9253      3.88%     96.48% # Bytes accessed per row activation
system.mem_ctrls.dram.bytesPerActivate::640-767          635      0.27%     96.75% # Bytes accessed per row activation
system.mem_ctrls.dram.bytesPerActivate::768-895          736      0.31%     97.06% # Bytes accessed per row activation
system.mem_ctrls.dram.bytesPerActivate::896-1023          631      0.26%     97.32% # Bytes accessed per row activation
system.mem_ctrls.dram.bytesPerActivate::1024-1151         6382      2.68%    100.00% # Bytes accessed per row activation
system.mem_ctrls.dram.bytesPerActivate::total       238309                       # Bytes accessed per row activation
system.mem_ctrls.dram.bytesRead              18329216                       # Total number of bytes read from DRAM
system.mem_ctrls.dram.bytesWritten           12774080                       # Total number of bytes written to DRAM
system.mem_ctrls.dram.avgRdBW              109.808560                       # Average DRAM read bandwidth in MiBytes/s
system.mem_ctrls.dram.avgWrBW               76.528277                       # Average DRAM write bandwidth in MiBytes/s
system.mem_ctrls.dram.peakBW                 12800.00                       # Theoretical peak bandwidth in MiByte/s
system.mem_ctrls.dram.busUtil                    1.46                       # Data bus utilization in percentage
system.mem_ctrls.dram.busUtilRead                0.86                       # Data bus utilization in percentage for reads
system.mem_ctrls.dram.busUtilWrite               0.60                       # Data bus utilization in percentage for writes
system.mem_ctrls.dram.pageHitRate               50.96                       # Row buffer hit rate, read and write combined
system.mem_ctrls.dram.power_state.pwrStateResidencyTicks::UNDEFINED 166919738000                       # Cumulative time (in ticks) in various power states
system.mem_ctrls.dram.rank0.actEnergy       835629900                       # Energy for activate commands per rank (pJ)
system.mem_ctrls.dram.rank0.preEnergy       444147825                       # Energy for precharge commands per rank (pJ)
system.mem_ctrls.dram.rank0.readEnergy     1014979560                       # Energy for read commands per rank (pJ)
system.mem_ctrls.dram.rank0.writeEnergy     514337040                       # Energy for write commands per rank (pJ)
system.mem_ctrls.dram.rank0.refreshEnergy 13176037680.000002                       # Energy for refresh commands per rank (pJ)
system.mem_ctrls.dram.rank0.actBackEnergy  41249620920                       # Energy for active background per rank (pJ)
system.mem_ctrls.dram.rank0.preBackEnergy  29360656800                       # Energy for precharge background per rank (pJ)
system.mem_ctrls.dram.rank0.actPowerDownEnergy            0                       # Energy for active power-down per rank (pJ)
system.mem_ctrls.dram.rank0.prePowerDownEnergy            0                       # Energy for precharge power-down per rank (pJ)
system.mem_ctrls.dram.rank0.selfRefreshEnergy            0                       # Energy for self refresh per rank (pJ)
system.mem_ctrls.dram.rank0.totalEnergy   86595409725                       # Total energy per rank (pJ)
system.mem_ctrls.dram.rank0.averagePower   518.784721                       # Core power per rank (mW)
system.mem_ctrls.dram.rank0.totalIdleTime            0                       # Total Idle time Per DRAM Rank
system.mem_ctrls.dram.rank0.pwrStateTime::IDLE  75902875750                       # Time in different power states
system.mem_ctrls.dram.rank0.pwrStateTime::REF   5573620000                       # Time in different power states
system.mem_ctrls.dram.rank0.pwrStateTime::SREF            0                       # Time in different power states
system.mem_ctrls.dram.rank0.pwrStateTime::PRE_PDN            0                       # Time in different power states
system.mem_ctrls.dram.rank0.pwrStateTime::ACT  85443242250                       # Time in different power states
system.mem_ctrls.dram.rank0.pwrStateTime::ACT_PDN            0                       # Time in different power states
system.mem_ctrls.dram.rank1.actEnergy       865896360                       # Energy for activate commands per rank (pJ)
system.mem_ctrls.dram.rank1.preEnergy       460234830                       # Energy for precharge commands per rank (pJ)
system.mem_ctrls.dram.rank1.readEnergy     1029873600                       # Energy for read commands per rank (pJ)
system.mem_ctrls.dram.rank1.writeEnergy     527548860                       # Energy for write commands per rank (pJ)
system.mem_ctrls.dram.rank1.refreshEnergy 13176037680.000002                       # Energy for refresh commands per rank (pJ)
system.mem_ctrls.dram.rank1.actBackEnergy  40864304910                       # Energy for active background per rank (pJ)
system.mem_ctrls.dram.rank1.preBackEnergy  29685133440                       # Energy for precharge background per rank (pJ)
system.mem_ctrls.dram.rank1.actPowerDownEnergy            0                       # Energy for active power-down per rank (pJ)
system.mem_ctrls.dram.rank1.prePowerDownEnergy            0                       # Energy for precharge power-down per rank (pJ)
system.mem_ctrls.dram.rank1.selfRefreshEnergy            0                       # Energy for self refresh per rank (pJ)
system.mem_ctrls.dram.rank1.totalEnergy   86609029680                       # Total energy per rank (pJ)
system.mem_ctrls.dram.rank1.averagePower   518.866317                       # Core power per rank (mW)
system.mem_ctrls.dram.rank1.totalIdleTime            0                       # Total Idle time Per DRAM Rank
system.mem_ctrls.dram.rank1.pwrStateTime::IDLE  76749940500                       # Time in different power states
system.mem_ctrls.dram.rank1.pwrStateTime::REF   5573620000                       # Time in different power states
system.mem_ctrls.dram.rank1.pwrStateTime::SREF            0                       # Time in different power states
system.mem_ctrls.dram.rank1.pwrStateTime::PRE_PDN            0                       # Time in different power states
system.mem_ctrls.dram.rank1.pwrStateTime::ACT  84596177500                       # Time in different power states
system.mem_ctrls.dram.rank1.pwrStateTime::ACT_PDN            0                       # Time in different power states
system.mem_ctrls.power_state.pwrStateResidencyTicks::UNDEFINED 166919738000                       # Cumulative time (in ticks) in various power states
system.membus.trans_dist::ReadResp             110493                       # Transaction distribution
system.membus.trans_dist::WritebackDirty       199648                       # Transaction distribution
system.membus.trans_dist::CleanEvict            78939                       # Transaction distribution
system.membus.trans_dist::ReadExReq            176825                       # Transaction distribution
system.membus.trans_dist::ReadExResp           176825                       # Transaction distribution
system.membus.trans_dist::ReadSharedReq        110493                       # Transaction distribution
system.membus.pkt_count_system.l2.mem_side_port::system.mem_ctrls.port       853223                       # Packet count per connected requestor and responder (bytes)
system.membus.pkt_count::total                 853223                       # Packet count per connected requestor and responder (bytes)
system.membus.pkt_size_system.l2.mem_side_port::system.mem_ctrls.port     31165824                       # Cumulative packet size per connected requestor and responder (bytes)
system.membus.pkt_size::total                31165824                       # Cumulative packet size per connected requestor and responder (bytes)
system.membus.snoops                                0                       # Total snoops (count)
system.membus.snoopTraffic                          0                       # Total snoop traffic (bytes)
system.membus.snoop_fanout::samples            287318                       # Request fanout histogram
system.membus.snoop_fanout::mean                    0                       # Request fanout histogram
system.membus.snoop_fanout::stdev                   0                       # Request fanout histogram
system.membus.snoop_fanout::underflows              0      0.00%      0.00% # Request fanout histogram
system.membus.snoop_fanout::0                  287318    100.00%    100.00% # Request fanout histogram
system.membus.snoop_fanout::1                       0      0.00%    100.00% # Request fanout histogram
system.membus.snoop_fanout::overflows               0      0.00%    100.00% # Request fanout histogram
system.membus.snoop_fanout::min_value               0                       # Request fanout histogram
system.membus.snoop_fanout::max_value               0                       # Request fanout histogram
system.membus.snoop_fanout::total              287318                       # Request fanout histogram
system.membus.power_state.pwrStateResidencyTicks::UNDEFINED 166919738000                       # Cumulative time (in ticks) in various power states
system.membus.reqLayer0.occupancy          1364497000                       # Layer occupancy (ticks)
system.membus.reqLayer0.utilization               0.8                       # Layer utilization (%)
system.membus.respLayer1.occupancy         1564177750                       # Layer occupancy (ticks)
system.membus.respLayer1.utilization              0.9                       # Layer utilization (%)
system.tol2bus.trans_dist::ReadResp            459689                       # Transaction distribution
system.tol2bus.trans_dist::WritebackDirty       879579                       # Transaction distribution
system.tol2bus.trans_dist::WritebackClean          245                       # Transaction distribution
system.tol2bus.trans_dist::CleanEvict          188780                       # Transaction distribution
system.tol2bus.trans_dist::ReadExReq           322319                       # Transaction distribution
system.tol2bus.trans_dist::ReadExResp          322319                       # Transaction distribution
system.tol2bus.trans_dist::ReadCleanReq           760                       # Transaction distribution
system.tol2bus.trans_dist::ReadSharedReq       458929                       # Transaction distribution
system.tol2bus.pkt_count_system.cpu.icache.mem_side_port::system.l2.cpu_side_port         1765                       # Packet count per connected requestor and responder (bytes)
system.tol2bus.pkt_count_system.cpu.dcache.mem_side_port::system.l2.cpu_side_port      2342720                       # Packet count per connected requestor and responder (bytes)
system.tol2bus.pkt_count::total               2344485                       # Packet count per connected requestor and responder (bytes)
system.tol2bus.pkt_size_system.cpu.icache.mem_side_port::system.l2.cpu_side_port        64320                       # Cumulative packet size per connected requestor and responder (bytes)
system.tol2bus.pkt_size_system.cpu.dcache.mem_side_port::system.l2.cpu_side_port     93515456                       # Cumulative packet size per connected requestor and responder (bytes)
system.tol2bus.pkt_size::total               93579776                       # Cumulative packet size per connected requestor and responder (bytes)
system.tol2bus.snoops                          288135                       # Total snoops (count)
system.tol2bus.snoopTraffic                  12777472                       # Total snoop traffic (bytes)
system.tol2bus.snoop_fanout::samples          1070143                       # Request fanout histogram
system.tol2bus.snoop_fanout::mean            0.013919                       # Request fanout histogram
system.tol2bus.snoop_fanout::stdev           0.117289                       # Request fanout histogram
system.tol2bus.snoop_fanout::underflows             0      0.00%      0.00% # Request fanout histogram
system.tol2bus.snoop_fanout::0                1055265     98.61%     98.61% # Request fanout histogram
system.tol2bus.snoop_fanout::1                  14861      1.39%    100.00% # Request fanout histogram
system.tol2bus.snoop_fanout::2                     17      0.00%    100.00% # Request fanout histogram
system.tol2bus.snoop_fanout::overflows              0      0.00%    100.00% # Request fanout histogram
system.tol2bus.snoop_fanout::min_value              0                       # Request fanout histogram
system.tol2bus.snoop_fanout::max_value              2                       # Request fanout histogram
system.tol2bus.snoop_fanout::total            1070143                       # Request fanout histogram
system.tol2bus.power_state.pwrStateResidencyTicks::UNDEFINED 166919738000                       # Cumulative time (in ticks) in various power states
system.tol2bus.reqLayer0.occupancy         2922829000                       # Layer occupancy (ticks)
system.tol2bus.reqLayer0.utilization              1.8                       # Layer utilization (%)
system.tol2bus.respLayer0.occupancy           2280000                       # Layer occupancy (ticks)
system.tol2bus.respLayer0.utilization             0.0                       # Layer utilization (%)
system.tol2bus.respLayer1.occupancy        2343748995                       # Layer occupancy (ticks)
system.tol2bus.respLayer1.utilization             1.4                       # Layer utilization (%)
system.voltage_domain.voltage                       1                       # Voltage in Volts

---------- End Simulation Statistics   ----------
