
---------- Begin Simulation Statistics ----------
simSeconds                                   0.205116                       # Number of seconds simulated (Second)
simTicks                                 205116229528                       # Number of ticks simulated (Tick)
finalTick                                205116229528                       # Number of ticks from beginning of simulation (restored from checkpoints and never reset) (Tick)
simFreq                                  1000000000000                       # The number of ticks per simulated second ((Tick/Second))
hostSeconds                                    364.55                       # Real time elapsed on the host (Second)
hostTickRate                                562662607                       # The number of ticks simulated per host second (ticks/s) ((Tick/Second))
hostMemory                                     731224                       # Number of bytes of host memory used (Byte)
simInsts                                    100000001                       # Number of instructions simulated (Count)
simOps                                      100003447                       # Number of ops (including micro ops) simulated (Count)
hostInstRate                                   274314                       # Simulator instruction rate (inst/s) ((Count/Second))
hostOpRate                                     274323                       # Simulator op (including micro ops) rate (op/s) ((Count/Second))
system.clk_domain.clock                          1000                       # Clock period in ticks (Tick)
system.cpu.numCycles                        307520584                       # Number of cpu cycles simulated (Cycle)
system.cpu.numWorkItemsStarted                      0                       # Number of work items this cpu started (Count)
system.cpu.numWorkItemsCompleted                    0                       # Number of work items this cpu completed (Count)
system.cpu.numInsts                         100000001                       # Number of instructions committed (Count)
system.cpu.numOps                           100003447                       # Number of ops (including micro ops) committed (Count)
system.cpu.numDiscardedOps                      21098                       # Number of ops (including micro ops) which were discarded before commit (Count)
system.cpu.numFetchSuspends                         0                       # Number of times Execute suspended instruction fetching (Count)
system.cpu.cpi                               3.075206                       # CPI: cycles per instruction ((Cycle/Count))
system.cpu.ipc                               0.325181                       # IPC: instructions per cycle ((Count/Cycle))
system.cpu.committedInstType_0::No_OpClass            0      0.00%      0.00% # Class of committed instruction (Count)
system.cpu.committedInstType_0::IntAlu       49995247     49.99%     49.99% # Class of committed instruction (Count)
system.cpu.committedInstType_0::IntMult            85      0.00%     49.99% # Class of committed instruction (Count)
system.cpu.committedInstType_0::IntDiv              0      0.00%     49.99% # Class of committed instruction (Count)
system.cpu.committedInstType_0::FloatAdd            0      0.00%     49.99% # Class of committed instruction (Count)
system.cpu.committedInstType_0::FloatCmp            0      0.00%     49.99% # Class of committed instruction (Count)
system.cpu.committedInstType_0::FloatCvt            0      0.00%     49.99% # Class of committed instruction (Count)
system.cpu.committedInstType_0::FloatMult            0      0.00%     49.99% # Class of committed instruction (Count)
system.cpu.committedInstType_0::FloatMultAcc            0      0.00%     49.99% # Class of committed instruction (Count)
system.cpu.committedInstType_0::FloatDiv            0      0.00%     49.99% # Class of committed instruction (Count)
system.cpu.committedInstType_0::FloatMisc            0      0.00%     49.99% # Class of committed instruction (Count)
system.cpu.committedInstType_0::FloatSqrt            0      0.00%     49.99% # Class of committed instruction (Count)
system.cpu.committedInstType_0::SimdAdd             0      0.00%     49.99% # Class of committed instruction (Count)
system.cpu.committedInstType_0::SimdAddAcc            0      0.00%     49.99% # Class of committed instruction (Count)
system.cpu.committedInstType_0::SimdAlu             0      0.00%     49.99% # Class of committed instruction (Count)
system.cpu.committedInstType_0::SimdCmp             0      0.00%     49.99% # Class of committed instruction (Count)
system.cpu.committedInstType_0::SimdCvt             0      0.00%     49.99% # Class of committed instruction (Count)
system.cpu.committedInstType_0::SimdMisc            0      0.00%     49.99% # Class of committed instruction (Count)
system.cpu.committedInstType_0::SimdMult            0      0.00%     49.99% # Class of committed instruction (Count)
system.cpu.committedInstType_0::SimdMultAcc            0      0.00%     49.99% # Class of committed instruction (Count)
system.cpu.committedInstType_0::SimdShift            0      0.00%     49.99% # Class of committed instruction (Count)
system.cpu.committedInstType_0::SimdShiftAcc            0      0.00%     49.99% # Class of committed instruction (Count)
system.cpu.committedInstType_0::SimdDiv             0      0.00%     49.99% # Class of committed instruction (Count)
system.cpu.committedInstType_0::SimdSqrt            0      0.00%     49.99% # Class of committed instruction (Count)
system.cpu.committedInstType_0::SimdFloatAdd            0      0.00%     49.99% # Class of committed instruction (Count)
system.cpu.committedInstType_0::SimdFloatAlu            0      0.00%     49.99% # Class of committed instruction (Count)
system.cpu.committedInstType_0::SimdFloatCmp            2      0.00%     49.99% # Class of committed instruction (Count)
system.cpu.committedInstType_0::SimdFloatCvt            0      0.00%     49.99% # Class of committed instruction (Count)
system.cpu.committedInstType_0::SimdFloatDiv            0      0.00%     49.99% # Class of committed instruction (Count)
system.cpu.committedInstType_0::SimdFloatMisc            5      0.00%     49.99% # Class of committed instruction (Count)
system.cpu.committedInstType_0::SimdFloatMult            0      0.00%     49.99% # Class of committed instruction (Count)
system.cpu.committedInstType_0::SimdFloatMultAcc            0      0.00%     49.99% # Class of committed instruction (Count)
system.cpu.committedInstType_0::SimdFloatSqrt            0      0.00%     49.99% # Class of committed instruction (Count)
system.cpu.committedInstType_0::SimdReduceAdd            0      0.00%     49.99% # Class of committed instruction (Count)
system.cpu.committedInstType_0::SimdReduceAlu            0      0.00%     49.99% # Class of committed instruction (Count)
system.cpu.committedInstType_0::SimdReduceCmp            0      0.00%     49.99% # Class of committed instruction (Count)
system.cpu.committedInstType_0::SimdFloatReduceAdd            0      0.00%     49.99% # Class of committed instruction (Count)
system.cpu.committedInstType_0::SimdFloatReduceCmp            0      0.00%     49.99% # Class of committed instruction (Count)
system.cpu.committedInstType_0::SimdAes             0      0.00%     49.99% # Class of committed instruction (Count)
system.cpu.committedInstType_0::SimdAesMix            0      0.00%     49.99% # Class of committed instruction (Count)
system.cpu.committedInstType_0::SimdSha1Hash            0      0.00%     49.99% # Class of committed instruction (Count)
system.cpu.committedInstType_0::SimdSha1Hash2            0      0.00%     49.99% # Class of committed instruction (Count)
system.cpu.committedInstType_0::SimdSha256Hash            0      0.00%     49.99% # Class of committed instruction (Count)
system.cpu.committedInstType_0::SimdSha256Hash2            0      0.00%     49.99% # Class of committed instruction (Count)
system.cpu.committedInstType_0::SimdShaSigma2            0      0.00%     49.99% # Class of committed instruction (Count)
system.cpu.committedInstType_0::SimdShaSigma3            0      0.00%     49.99% # Class of committed instruction (Count)
system.cpu.committedInstType_0::SimdPredAlu            0      0.00%     49.99% # Class of committed instruction (Count)
system.cpu.committedInstType_0::MemRead      36892277     36.89%     86.88% # Class of committed instruction (Count)
system.cpu.committedInstType_0::MemWrite     13115831     13.12%    100.00% # Class of committed instruction (Count)
system.cpu.committedInstType_0::FloatMemRead            0      0.00%    100.00% # Class of committed instruction (Count)
system.cpu.committedInstType_0::FloatMemWrite            0      0.00%    100.00% # Class of committed instruction (Count)
system.cpu.committedInstType_0::IprAccess            0      0.00%    100.00% # Class of committed instruction (Count)
system.cpu.committedInstType_0::InstPrefetch            0      0.00%    100.00% # Class of committed instruction (Count)
system.cpu.committedInstType_0::total       100003447                       # Class of committed instruction (Count)
system.cpu.branchPred.lookups                  606307                       # Number of BP lookups (Count)
system.cpu.branchPred.condPredicted            604305                       # Number of conditional branches predicted (Count)
system.cpu.branchPred.condIncorrect               815                       # Number of conditional branches incorrect (Count)
system.cpu.branchPred.BTBLookups               602234                       # Number of BTB lookups (Count)
system.cpu.branchPred.BTBHits                  601172                       # Number of BTB hits (Count)
system.cpu.branchPred.BTBHitRatio            0.998237                       # BTB Hit Ratio (Ratio)
system.cpu.branchPred.RASUsed                     552                       # Number of times the RAS was used to get a target. (Count)
system.cpu.branchPred.RASIncorrect                  1                       # Number of incorrect RAS predictions. (Count)
system.cpu.branchPred.indirectLookups             356                       # Number of indirect predictor lookups. (Count)
system.cpu.branchPred.indirectHits                168                       # Number of indirect target hits. (Count)
system.cpu.branchPred.indirectMisses              188                       # Number of indirect misses. (Count)
system.cpu.branchPred.indirectMispredicted          103                       # Number of mispredicted indirect branches. (Count)
system.cpu.dcache.demandHits::cpu.data       45820031                       # number of demand (read+write) hits (Count)
system.cpu.dcache.demandHits::total          45820031                       # number of demand (read+write) hits (Count)
system.cpu.dcache.overallHits::cpu.data      45820061                       # number of overall hits (Count)
system.cpu.dcache.overallHits::total         45820061                       # number of overall hits (Count)
system.cpu.dcache.demandMisses::cpu.data      2975074                       # number of demand (read+write) misses (Count)
system.cpu.dcache.demandMisses::total         2975074                       # number of demand (read+write) misses (Count)
system.cpu.dcache.overallMisses::cpu.data      2975096                       # number of overall misses (Count)
system.cpu.dcache.overallMisses::total        2975096                       # number of overall misses (Count)
system.cpu.dcache.demandMissLatency::cpu.data 260464982741                       # number of demand (read+write) miss ticks (Tick)
system.cpu.dcache.demandMissLatency::total 260464982741                       # number of demand (read+write) miss ticks (Tick)
system.cpu.dcache.overallMissLatency::cpu.data 260464982741                       # number of overall miss ticks (Tick)
system.cpu.dcache.overallMissLatency::total 260464982741                       # number of overall miss ticks (Tick)
system.cpu.dcache.demandAccesses::cpu.data     48795105                       # number of demand (read+write) accesses (Count)
system.cpu.dcache.demandAccesses::total      48795105                       # number of demand (read+write) accesses (Count)
system.cpu.dcache.overallAccesses::cpu.data     48795157                       # number of overall (read+write) accesses (Count)
system.cpu.dcache.overallAccesses::total     48795157                       # number of overall (read+write) accesses (Count)
system.cpu.dcache.demandMissRate::cpu.data     0.060971                       # miss rate for demand accesses (Ratio)
system.cpu.dcache.demandMissRate::total      0.060971                       # miss rate for demand accesses (Ratio)
system.cpu.dcache.overallMissRate::cpu.data     0.060971                       # miss rate for overall accesses (Ratio)
system.cpu.dcache.overallMissRate::total     0.060971                       # miss rate for overall accesses (Ratio)
system.cpu.dcache.demandAvgMissLatency::cpu.data 87549.077012                       # average overall miss latency ((Cycle/Count))
system.cpu.dcache.demandAvgMissLatency::total 87549.077012                       # average overall miss latency ((Cycle/Count))
system.cpu.dcache.overallAvgMissLatency::cpu.data 87548.429611                       # average overall miss latency ((Cycle/Count))
system.cpu.dcache.overallAvgMissLatency::total 87548.429611                       # average overall miss latency ((Cycle/Count))
system.cpu.dcache.blockedCycles::no_mshrs            0                       # number of cycles access was blocked (Cycle)
system.cpu.dcache.blockedCycles::no_targets            0                       # number of cycles access was blocked (Cycle)
system.cpu.dcache.blockedCauses::no_mshrs            0                       # number of times access was blocked (Count)
system.cpu.dcache.blockedCauses::no_targets            0                       # number of times access was blocked (Count)
system.cpu.dcache.avgBlocked::no_mshrs            nan                       # average number of cycles each access was blocked ((Cycle/Count))
system.cpu.dcache.avgBlocked::no_targets          nan                       # average number of cycles each access was blocked ((Cycle/Count))
system.cpu.dcache.writebacks::writebacks      1486489                       # number of writebacks (Count)
system.cpu.dcache.writebacks::total           1486489                       # number of writebacks (Count)
system.cpu.dcache.demandMshrHits::cpu.data      1487477                       # number of demand (read+write) MSHR hits (Count)
system.cpu.dcache.demandMshrHits::total       1487477                       # number of demand (read+write) MSHR hits (Count)
system.cpu.dcache.overallMshrHits::cpu.data      1487477                       # number of overall MSHR hits (Count)
system.cpu.dcache.overallMshrHits::total      1487477                       # number of overall MSHR hits (Count)
system.cpu.dcache.demandMshrMisses::cpu.data      1487597                       # number of demand (read+write) MSHR misses (Count)
system.cpu.dcache.demandMshrMisses::total      1487597                       # number of demand (read+write) MSHR misses (Count)
system.cpu.dcache.overallMshrMisses::cpu.data      1487614                       # number of overall MSHR misses (Count)
system.cpu.dcache.overallMshrMisses::total      1487614                       # number of overall MSHR misses (Count)
system.cpu.dcache.demandMshrMissLatency::cpu.data 133517437356                       # number of demand (read+write) MSHR miss ticks (Tick)
system.cpu.dcache.demandMshrMissLatency::total 133517437356                       # number of demand (read+write) MSHR miss ticks (Tick)
system.cpu.dcache.overallMshrMissLatency::cpu.data 133518924766                       # number of overall MSHR miss ticks (Tick)
system.cpu.dcache.overallMshrMissLatency::total 133518924766                       # number of overall MSHR miss ticks (Tick)
system.cpu.dcache.demandMshrMissRate::cpu.data     0.030487                       # mshr miss ratio for demand accesses (Ratio)
system.cpu.dcache.demandMshrMissRate::total     0.030487                       # mshr miss ratio for demand accesses (Ratio)
system.cpu.dcache.overallMshrMissRate::cpu.data     0.030487                       # mshr miss ratio for overall accesses (Ratio)
system.cpu.dcache.overallMshrMissRate::total     0.030487                       # mshr miss ratio for overall accesses (Ratio)
system.cpu.dcache.demandAvgMshrMissLatency::cpu.data 89753.768901                       # average overall mshr miss latency ((Cycle/Count))
system.cpu.dcache.demandAvgMshrMissLatency::total 89753.768901                       # average overall mshr miss latency ((Cycle/Count))
system.cpu.dcache.overallAvgMshrMissLatency::cpu.data 89753.743085                       # average overall mshr miss latency ((Cycle/Count))
system.cpu.dcache.overallAvgMshrMissLatency::total 89753.743085                       # average overall mshr miss latency ((Cycle/Count))
system.cpu.dcache.replacements                1486591                       # number of replacements (Count)
system.cpu.dcache.LoadLockedReq.hits::cpu.data           13                       # number of LoadLockedReq hits (Count)
system.cpu.dcache.LoadLockedReq.hits::total           13                       # number of LoadLockedReq hits (Count)
system.cpu.dcache.LoadLockedReq.misses::cpu.data            1                       # number of LoadLockedReq misses (Count)
system.cpu.dcache.LoadLockedReq.misses::total            1                       # number of LoadLockedReq misses (Count)
system.cpu.dcache.LoadLockedReq.missLatency::cpu.data        80040                       # number of LoadLockedReq miss ticks (Tick)
system.cpu.dcache.LoadLockedReq.missLatency::total        80040                       # number of LoadLockedReq miss ticks (Tick)
system.cpu.dcache.LoadLockedReq.accesses::cpu.data           14                       # number of LoadLockedReq accesses(hits+misses) (Count)
system.cpu.dcache.LoadLockedReq.accesses::total           14                       # number of LoadLockedReq accesses(hits+misses) (Count)
system.cpu.dcache.LoadLockedReq.missRate::cpu.data     0.071429                       # miss rate for LoadLockedReq accesses (Ratio)
system.cpu.dcache.LoadLockedReq.missRate::total     0.071429                       # miss rate for LoadLockedReq accesses (Ratio)
system.cpu.dcache.LoadLockedReq.avgMissLatency::cpu.data        80040                       # average LoadLockedReq miss latency ((Tick/Count))
system.cpu.dcache.LoadLockedReq.avgMissLatency::total        80040                       # average LoadLockedReq miss latency ((Tick/Count))
system.cpu.dcache.LoadLockedReq.mshrMisses::cpu.data            1                       # number of LoadLockedReq MSHR misses (Count)
system.cpu.dcache.LoadLockedReq.mshrMisses::total            1                       # number of LoadLockedReq MSHR misses (Count)
system.cpu.dcache.LoadLockedReq.mshrMissLatency::cpu.data        78706                       # number of LoadLockedReq MSHR miss ticks (Tick)
system.cpu.dcache.LoadLockedReq.mshrMissLatency::total        78706                       # number of LoadLockedReq MSHR miss ticks (Tick)
system.cpu.dcache.LoadLockedReq.mshrMissRate::cpu.data     0.071429                       # mshr miss rate for LoadLockedReq accesses (Ratio)
system.cpu.dcache.LoadLockedReq.mshrMissRate::total     0.071429                       # mshr miss rate for LoadLockedReq accesses (Ratio)
system.cpu.dcache.LoadLockedReq.avgMshrMissLatency::cpu.data        78706                       # average LoadLockedReq mshr miss latency ((Tick/Count))
system.cpu.dcache.LoadLockedReq.avgMshrMissLatency::total        78706                       # average LoadLockedReq mshr miss latency ((Tick/Count))
system.cpu.dcache.ReadReq.hits::cpu.data     35702512                       # number of ReadReq hits (Count)
system.cpu.dcache.ReadReq.hits::total        35702512                       # number of ReadReq hits (Count)
system.cpu.dcache.ReadReq.misses::cpu.data          106                       # number of ReadReq misses (Count)
system.cpu.dcache.ReadReq.misses::total           106                       # number of ReadReq misses (Count)
system.cpu.dcache.ReadReq.missLatency::cpu.data      8592294                       # number of ReadReq miss ticks (Tick)
system.cpu.dcache.ReadReq.missLatency::total      8592294                       # number of ReadReq miss ticks (Tick)
system.cpu.dcache.ReadReq.accesses::cpu.data     35702618                       # number of ReadReq accesses(hits+misses) (Count)
system.cpu.dcache.ReadReq.accesses::total     35702618                       # number of ReadReq accesses(hits+misses) (Count)
system.cpu.dcache.ReadReq.missRate::cpu.data     0.000003                       # miss rate for ReadReq accesses (Ratio)
system.cpu.dcache.ReadReq.missRate::total     0.000003                       # miss rate for ReadReq accesses (Ratio)
system.cpu.dcache.ReadReq.avgMissLatency::cpu.data 81059.377358                       # average ReadReq miss latency ((Tick/Count))
system.cpu.dcache.ReadReq.avgMissLatency::total 81059.377358                       # average ReadReq miss latency ((Tick/Count))
system.cpu.dcache.ReadReq.mshrHits::cpu.data            5                       # number of ReadReq MSHR hits (Count)
system.cpu.dcache.ReadReq.mshrHits::total            5                       # number of ReadReq MSHR hits (Count)
system.cpu.dcache.ReadReq.mshrMisses::cpu.data          101                       # number of ReadReq MSHR misses (Count)
system.cpu.dcache.ReadReq.mshrMisses::total          101                       # number of ReadReq MSHR misses (Count)
system.cpu.dcache.ReadReq.mshrMissLatency::cpu.data      7973985                       # number of ReadReq MSHR miss ticks (Tick)
system.cpu.dcache.ReadReq.mshrMissLatency::total      7973985                       # number of ReadReq MSHR miss ticks (Tick)
system.cpu.dcache.ReadReq.mshrMissRate::cpu.data     0.000003                       # mshr miss rate for ReadReq accesses (Ratio)
system.cpu.dcache.ReadReq.mshrMissRate::total     0.000003                       # mshr miss rate for ReadReq accesses (Ratio)
system.cpu.dcache.ReadReq.avgMshrMissLatency::cpu.data 78950.346535                       # average ReadReq mshr miss latency ((Tick/Count))
system.cpu.dcache.ReadReq.avgMshrMissLatency::total 78950.346535                       # average ReadReq mshr miss latency ((Tick/Count))
system.cpu.dcache.SoftPFReq.hits::cpu.data           30                       # number of SoftPFReq hits (Count)
system.cpu.dcache.SoftPFReq.hits::total            30                       # number of SoftPFReq hits (Count)
system.cpu.dcache.SoftPFReq.misses::cpu.data           22                       # number of SoftPFReq misses (Count)
system.cpu.dcache.SoftPFReq.misses::total           22                       # number of SoftPFReq misses (Count)
system.cpu.dcache.SoftPFReq.accesses::cpu.data           52                       # number of SoftPFReq accesses(hits+misses) (Count)
system.cpu.dcache.SoftPFReq.accesses::total           52                       # number of SoftPFReq accesses(hits+misses) (Count)
system.cpu.dcache.SoftPFReq.missRate::cpu.data     0.423077                       # miss rate for SoftPFReq accesses (Ratio)
system.cpu.dcache.SoftPFReq.missRate::total     0.423077                       # miss rate for SoftPFReq accesses (Ratio)
system.cpu.dcache.SoftPFReq.mshrMisses::cpu.data           17                       # number of SoftPFReq MSHR misses (Count)
system.cpu.dcache.SoftPFReq.mshrMisses::total           17                       # number of SoftPFReq MSHR misses (Count)
system.cpu.dcache.SoftPFReq.mshrMissLatency::cpu.data      1487410                       # number of SoftPFReq MSHR miss ticks (Tick)
system.cpu.dcache.SoftPFReq.mshrMissLatency::total      1487410                       # number of SoftPFReq MSHR miss ticks (Tick)
system.cpu.dcache.SoftPFReq.mshrMissRate::cpu.data     0.326923                       # mshr miss rate for SoftPFReq accesses (Ratio)
system.cpu.dcache.SoftPFReq.mshrMissRate::total     0.326923                       # mshr miss rate for SoftPFReq accesses (Ratio)
system.cpu.dcache.SoftPFReq.avgMshrMissLatency::cpu.data 87494.705882                       # average SoftPFReq mshr miss latency ((Tick/Count))
system.cpu.dcache.SoftPFReq.avgMshrMissLatency::total 87494.705882                       # average SoftPFReq mshr miss latency ((Tick/Count))
system.cpu.dcache.StoreCondReq.hits::cpu.data           14                       # number of StoreCondReq hits (Count)
system.cpu.dcache.StoreCondReq.hits::total           14                       # number of StoreCondReq hits (Count)
system.cpu.dcache.StoreCondReq.accesses::cpu.data           14                       # number of StoreCondReq accesses(hits+misses) (Count)
system.cpu.dcache.StoreCondReq.accesses::total           14                       # number of StoreCondReq accesses(hits+misses) (Count)
system.cpu.dcache.WriteReq.hits::cpu.data     10117519                       # number of WriteReq hits (Count)
system.cpu.dcache.WriteReq.hits::total       10117519                       # number of WriteReq hits (Count)
system.cpu.dcache.WriteReq.misses::cpu.data      2974968                       # number of WriteReq misses (Count)
system.cpu.dcache.WriteReq.misses::total      2974968                       # number of WriteReq misses (Count)
system.cpu.dcache.WriteReq.missLatency::cpu.data 260456390447                       # number of WriteReq miss ticks (Tick)
system.cpu.dcache.WriteReq.missLatency::total 260456390447                       # number of WriteReq miss ticks (Tick)
system.cpu.dcache.WriteReq.accesses::cpu.data     13092487                       # number of WriteReq accesses(hits+misses) (Count)
system.cpu.dcache.WriteReq.accesses::total     13092487                       # number of WriteReq accesses(hits+misses) (Count)
system.cpu.dcache.WriteReq.missRate::cpu.data     0.227227                       # miss rate for WriteReq accesses (Ratio)
system.cpu.dcache.WriteReq.missRate::total     0.227227                       # miss rate for WriteReq accesses (Ratio)
system.cpu.dcache.WriteReq.avgMissLatency::cpu.data 87549.308244                       # average WriteReq miss latency ((Tick/Count))
system.cpu.dcache.WriteReq.avgMissLatency::total 87549.308244                       # average WriteReq miss latency ((Tick/Count))
system.cpu.dcache.WriteReq.mshrHits::cpu.data      1487472                       # number of WriteReq MSHR hits (Count)
system.cpu.dcache.WriteReq.mshrHits::total      1487472                       # number of WriteReq MSHR hits (Count)
system.cpu.dcache.WriteReq.mshrMisses::cpu.data      1487496                       # number of WriteReq MSHR misses (Count)
system.cpu.dcache.WriteReq.mshrMisses::total      1487496                       # number of WriteReq MSHR misses (Count)
system.cpu.dcache.WriteReq.mshrMissLatency::cpu.data 133509463371                       # number of WriteReq MSHR miss ticks (Tick)
system.cpu.dcache.WriteReq.mshrMissLatency::total 133509463371                       # number of WriteReq MSHR miss ticks (Tick)
system.cpu.dcache.WriteReq.mshrMissRate::cpu.data     0.113614                       # mshr miss rate for WriteReq accesses (Ratio)
system.cpu.dcache.WriteReq.mshrMissRate::total     0.113614                       # mshr miss rate for WriteReq accesses (Ratio)
system.cpu.dcache.WriteReq.avgMshrMissLatency::cpu.data 89754.502446                       # average WriteReq mshr miss latency ((Tick/Count))
system.cpu.dcache.WriteReq.avgMshrMissLatency::total 89754.502446                       # average WriteReq mshr miss latency ((Tick/Count))
system.cpu.dcache.power_state.pwrStateResidencyTicks::UNDEFINED 205116229528                       # Cumulative time (in ticks) in various power states (Tick)
system.cpu.dcache.tags.tagsInUse          1023.431289                       # Average ticks per tags in use ((Tick/Count))
system.cpu.dcache.tags.totalRefs             47307703                       # Total number of references to valid blocks. (Count)
system.cpu.dcache.tags.sampledRefs            1487615                       # Sample count of references to valid blocks. (Count)
system.cpu.dcache.tags.avgRefs              31.801039                       # Average number of references to valid blocks. ((Count/Count))
system.cpu.dcache.tags.warmupTick              211439                       # The tick when the warmup percentage was hit. (Tick)
system.cpu.dcache.tags.occupancies::cpu.data  1023.431289                       # Average occupied blocks per tick, per requestor ((Count/Tick))
system.cpu.dcache.tags.avgOccs::cpu.data     0.999445                       # Average percentage of cache occupancy ((Ratio/Tick))
system.cpu.dcache.tags.avgOccs::total        0.999445                       # Average percentage of cache occupancy ((Ratio/Tick))
system.cpu.dcache.tags.occupanciesTaskId::1024         1024                       # Occupied blocks per task id (Count)
system.cpu.dcache.tags.ageTaskId_1024::0           73                       # Occupied blocks per task id, per block age (Count)
system.cpu.dcache.tags.ageTaskId_1024::1          652                       # Occupied blocks per task id, per block age (Count)
system.cpu.dcache.tags.ageTaskId_1024::2          296                       # Occupied blocks per task id, per block age (Count)
system.cpu.dcache.tags.ageTaskId_1024::4            3                       # Occupied blocks per task id, per block age (Count)
system.cpu.dcache.tags.ratioOccsTaskId::1024            1                       # Ratio of occupied blocks and all blocks, per task id (Ratio)
system.cpu.dcache.tags.tagAccesses           99077985                       # Number of tag accesses (Count)
system.cpu.dcache.tags.dataAccesses          99077985                       # Number of data accesses (Count)
system.cpu.dcache.tags.power_state.pwrStateResidencyTicks::UNDEFINED 205116229528                       # Cumulative time (in ticks) in various power states (Tick)
system.cpu.fetch2.intInstructions            49669538                       # Number of integer instructions successfully decoded (Count)
system.cpu.fetch2.fpInstructions                    0                       # Number of floating point instructions successfully decoded (Count)
system.cpu.fetch2.vecInstructions                   0                       # Number of SIMD instructions successfully decoded (Count)
system.cpu.fetch2.loadInstructions           37092361                       # Number of memory load instructions successfully decoded (Count)
system.cpu.fetch2.storeInstructions          13161014                       # Number of memory store instructions successfully decoded (Count)
system.cpu.fetch2.amoInstructions                   0                       # Number of memory atomic instructions successfully decoded (Count)
system.cpu.icache.demandHits::cpu.inst        6045471                       # number of demand (read+write) hits (Count)
system.cpu.icache.demandHits::total           6045471                       # number of demand (read+write) hits (Count)
system.cpu.icache.overallHits::cpu.inst       6045471                       # number of overall hits (Count)
system.cpu.icache.overallHits::total          6045471                       # number of overall hits (Count)
system.cpu.icache.demandMisses::cpu.inst          591                       # number of demand (read+write) misses (Count)
system.cpu.icache.demandMisses::total             591                       # number of demand (read+write) misses (Count)
system.cpu.icache.overallMisses::cpu.inst          591                       # number of overall misses (Count)
system.cpu.icache.overallMisses::total            591                       # number of overall misses (Count)
system.cpu.icache.demandMissLatency::cpu.inst     44593619                       # number of demand (read+write) miss ticks (Tick)
system.cpu.icache.demandMissLatency::total     44593619                       # number of demand (read+write) miss ticks (Tick)
system.cpu.icache.overallMissLatency::cpu.inst     44593619                       # number of overall miss ticks (Tick)
system.cpu.icache.overallMissLatency::total     44593619                       # number of overall miss ticks (Tick)
system.cpu.icache.demandAccesses::cpu.inst      6046062                       # number of demand (read+write) accesses (Count)
system.cpu.icache.demandAccesses::total       6046062                       # number of demand (read+write) accesses (Count)
system.cpu.icache.overallAccesses::cpu.inst      6046062                       # number of overall (read+write) accesses (Count)
system.cpu.icache.overallAccesses::total      6046062                       # number of overall (read+write) accesses (Count)
system.cpu.icache.demandMissRate::cpu.inst     0.000098                       # miss rate for demand accesses (Ratio)
system.cpu.icache.demandMissRate::total      0.000098                       # miss rate for demand accesses (Ratio)
system.cpu.icache.overallMissRate::cpu.inst     0.000098                       # miss rate for overall accesses (Ratio)
system.cpu.icache.overallMissRate::total     0.000098                       # miss rate for overall accesses (Ratio)
system.cpu.icache.demandAvgMissLatency::cpu.inst 75454.516074                       # average overall miss latency ((Cycle/Count))
system.cpu.icache.demandAvgMissLatency::total 75454.516074                       # average overall miss latency ((Cycle/Count))
system.cpu.icache.overallAvgMissLatency::cpu.inst 75454.516074                       # average overall miss latency ((Cycle/Count))
system.cpu.icache.overallAvgMissLatency::total 75454.516074                       # average overall miss latency ((Cycle/Count))
system.cpu.icache.blockedCycles::no_mshrs            0                       # number of cycles access was blocked (Cycle)
system.cpu.icache.blockedCycles::no_targets            0                       # number of cycles access was blocked (Cycle)
system.cpu.icache.blockedCauses::no_mshrs            0                       # number of times access was blocked (Count)
system.cpu.icache.blockedCauses::no_targets            0                       # number of times access was blocked (Count)
system.cpu.icache.avgBlocked::no_mshrs            nan                       # average number of cycles each access was blocked ((Cycle/Count))
system.cpu.icache.avgBlocked::no_targets          nan                       # average number of cycles each access was blocked ((Cycle/Count))
system.cpu.icache.writebacks::writebacks          260                       # number of writebacks (Count)
system.cpu.icache.writebacks::total               260                       # number of writebacks (Count)
system.cpu.icache.demandMshrMisses::cpu.inst          591                       # number of demand (read+write) MSHR misses (Count)
system.cpu.icache.demandMshrMisses::total          591                       # number of demand (read+write) MSHR misses (Count)
system.cpu.icache.overallMshrMisses::cpu.inst          591                       # number of overall MSHR misses (Count)
system.cpu.icache.overallMshrMisses::total          591                       # number of overall MSHR misses (Count)
system.cpu.icache.demandMshrMissLatency::cpu.inst     43805225                       # number of demand (read+write) MSHR miss ticks (Tick)
system.cpu.icache.demandMshrMissLatency::total     43805225                       # number of demand (read+write) MSHR miss ticks (Tick)
system.cpu.icache.overallMshrMissLatency::cpu.inst     43805225                       # number of overall MSHR miss ticks (Tick)
system.cpu.icache.overallMshrMissLatency::total     43805225                       # number of overall MSHR miss ticks (Tick)
system.cpu.icache.demandMshrMissRate::cpu.inst     0.000098                       # mshr miss ratio for demand accesses (Ratio)
system.cpu.icache.demandMshrMissRate::total     0.000098                       # mshr miss ratio for demand accesses (Ratio)
system.cpu.icache.overallMshrMissRate::cpu.inst     0.000098                       # mshr miss ratio for overall accesses (Ratio)
system.cpu.icache.overallMshrMissRate::total     0.000098                       # mshr miss ratio for overall accesses (Ratio)
system.cpu.icache.demandAvgMshrMissLatency::cpu.inst 74120.516074                       # average overall mshr miss latency ((Cycle/Count))
system.cpu.icache.demandAvgMshrMissLatency::total 74120.516074                       # average overall mshr miss latency ((Cycle/Count))
system.cpu.icache.overallAvgMshrMissLatency::cpu.inst 74120.516074                       # average overall mshr miss latency ((Cycle/Count))
system.cpu.icache.overallAvgMshrMissLatency::total 74120.516074                       # average overall mshr miss latency ((Cycle/Count))
system.cpu.icache.replacements                    260                       # number of replacements (Count)
system.cpu.icache.ReadReq.hits::cpu.inst      6045471                       # number of ReadReq hits (Count)
system.cpu.icache.ReadReq.hits::total         6045471                       # number of ReadReq hits (Count)
system.cpu.icache.ReadReq.misses::cpu.inst          591                       # number of ReadReq misses (Count)
system.cpu.icache.ReadReq.misses::total           591                       # number of ReadReq misses (Count)
system.cpu.icache.ReadReq.missLatency::cpu.inst     44593619                       # number of ReadReq miss ticks (Tick)
system.cpu.icache.ReadReq.missLatency::total     44593619                       # number of ReadReq miss ticks (Tick)
system.cpu.icache.ReadReq.accesses::cpu.inst      6046062                       # number of ReadReq accesses(hits+misses) (Count)
system.cpu.icache.ReadReq.accesses::total      6046062                       # number of ReadReq accesses(hits+misses) (Count)
system.cpu.icache.ReadReq.missRate::cpu.inst     0.000098                       # miss rate for ReadReq accesses (Ratio)
system.cpu.icache.ReadReq.missRate::total     0.000098                       # miss rate for ReadReq accesses (Ratio)
system.cpu.icache.ReadReq.avgMissLatency::cpu.inst 75454.516074                       # average ReadReq miss latency ((Tick/Count))
system.cpu.icache.ReadReq.avgMissLatency::total 75454.516074                       # average ReadReq miss latency ((Tick/Count))
system.cpu.icache.ReadReq.mshrMisses::cpu.inst          591                       # number of ReadReq MSHR misses (Count)
system.cpu.icache.ReadReq.mshrMisses::total          591                       # number of ReadReq MSHR misses (Count)
system.cpu.icache.ReadReq.mshrMissLatency::cpu.inst     43805225                       # number of ReadReq MSHR miss ticks (Tick)
system.cpu.icache.ReadReq.mshrMissLatency::total     43805225                       # number of ReadReq MSHR miss ticks (Tick)
system.cpu.icache.ReadReq.mshrMissRate::cpu.inst     0.000098                       # mshr miss rate for ReadReq accesses (Ratio)
system.cpu.icache.ReadReq.mshrMissRate::total     0.000098                       # mshr miss rate for ReadReq accesses (Ratio)
system.cpu.icache.ReadReq.avgMshrMissLatency::cpu.inst 74120.516074                       # average ReadReq mshr miss latency ((Tick/Count))
system.cpu.icache.ReadReq.avgMshrMissLatency::total 74120.516074                       # average ReadReq mshr miss latency ((Tick/Count))
system.cpu.icache.power_state.pwrStateResidencyTicks::UNDEFINED 205116229528                       # Cumulative time (in ticks) in various power states (Tick)
system.cpu.icache.tags.tagsInUse           330.958494                       # Average ticks per tags in use ((Tick/Count))
system.cpu.icache.tags.totalRefs              6046062                       # Total number of references to valid blocks. (Count)
system.cpu.icache.tags.sampledRefs                591                       # Sample count of references to valid blocks. (Count)
system.cpu.icache.tags.avgRefs           10230.223350                       # Average number of references to valid blocks. ((Count/Count))
system.cpu.icache.tags.warmupTick               94047                       # The tick when the warmup percentage was hit. (Tick)
system.cpu.icache.tags.occupancies::cpu.inst   330.958494                       # Average occupied blocks per tick, per requestor ((Count/Tick))
system.cpu.icache.tags.avgOccs::cpu.inst     0.646403                       # Average percentage of cache occupancy ((Ratio/Tick))
system.cpu.icache.tags.avgOccs::total        0.646403                       # Average percentage of cache occupancy ((Ratio/Tick))
system.cpu.icache.tags.occupanciesTaskId::1024          331                       # Occupied blocks per task id (Count)
system.cpu.icache.tags.ageTaskId_1024::4          331                       # Occupied blocks per task id, per block age (Count)
system.cpu.icache.tags.ratioOccsTaskId::1024     0.646484                       # Ratio of occupied blocks and all blocks, per task id (Ratio)
system.cpu.icache.tags.tagAccesses           12092715                       # Number of tag accesses (Count)
system.cpu.icache.tags.dataAccesses          12092715                       # Number of data accesses (Count)
system.cpu.icache.tags.power_state.pwrStateResidencyTicks::UNDEFINED 205116229528                       # Cumulative time (in ticks) in various power states (Tick)
system.cpu.mmu.dtb.instHits                         0                       # ITB inst hits (Count)
system.cpu.mmu.dtb.instMisses                       0                       # ITB inst misses (Count)
system.cpu.mmu.dtb.readHits                         0                       # DTB read hits (Count)
system.cpu.mmu.dtb.readMisses                       0                       # DTB read misses (Count)
system.cpu.mmu.dtb.writeHits                        0                       # DTB write hits (Count)
system.cpu.mmu.dtb.writeMisses                      0                       # DTB write misses (Count)
system.cpu.mmu.dtb.inserts                          0                       # Number of times an entry is inserted into the TLB (Count)
system.cpu.mmu.dtb.flushTlb                         0                       # Number of times complete TLB was flushed (Count)
system.cpu.mmu.dtb.flushTlbMva                      0                       # Number of times TLB was flushed by MVA (Count)
system.cpu.mmu.dtb.flushTlbMvaAsid                  0                       # Number of times TLB was flushed by MVA & ASID (Count)
system.cpu.mmu.dtb.flushTlbAsid                     0                       # Number of times TLB was flushed by ASID (Count)
system.cpu.mmu.dtb.flushedEntries                   0                       # Number of entries that have been flushed from TLB (Count)
system.cpu.mmu.dtb.alignFaults                      0                       # Number of TLB faults due to alignment restrictions (Count)
system.cpu.mmu.dtb.prefetchFaults                   0                       # Number of TLB faults due to prefetch (Count)
system.cpu.mmu.dtb.domainFaults                     0                       # Number of TLB faults due to domain restrictions (Count)
system.cpu.mmu.dtb.permsFaults                      0                       # Number of TLB faults due to permissions restrictions (Count)
system.cpu.mmu.dtb.readAccesses                     0                       # DTB read accesses (Count)
system.cpu.mmu.dtb.writeAccesses                    0                       # DTB write accesses (Count)
system.cpu.mmu.dtb.instAccesses                     0                       # ITB inst accesses (Count)
system.cpu.mmu.dtb.hits                             0                       # Total TLB (inst and data) hits (Count)
system.cpu.mmu.dtb.misses                           0                       # Total TLB (inst and data) misses (Count)
system.cpu.mmu.dtb.accesses                         0                       # Total TLB (inst and data) accesses (Count)
system.cpu.mmu.dtb_walker.walks                     0                       # Table walker walks requested (Count)
system.cpu.mmu.dtb_walker.requestOrigin_Requested::Data            0                       # Table walker requests started/completed, data/inst (Count)
system.cpu.mmu.dtb_walker.requestOrigin_Requested::Inst            0                       # Table walker requests started/completed, data/inst (Count)
system.cpu.mmu.dtb_walker.requestOrigin_Requested::total            0                       # Table walker requests started/completed, data/inst (Count)
system.cpu.mmu.dtb_walker.requestOrigin_Completed::Data            0                       # Table walker requests started/completed, data/inst (Count)
system.cpu.mmu.dtb_walker.requestOrigin_Completed::Inst            0                       # Table walker requests started/completed, data/inst (Count)
system.cpu.mmu.dtb_walker.requestOrigin_Completed::total            0                       # Table walker requests started/completed, data/inst (Count)
system.cpu.mmu.dtb_walker.requestOrigin::total            0                       # Table walker requests started/completed, data/inst (Count)
system.cpu.mmu.dtb_walker.power_state.pwrStateResidencyTicks::UNDEFINED 205116229528                       # Cumulative time (in ticks) in various power states (Tick)
system.cpu.mmu.itb.instHits                         0                       # ITB inst hits (Count)
system.cpu.mmu.itb.instMisses                       0                       # ITB inst misses (Count)
system.cpu.mmu.itb.readHits                         0                       # DTB read hits (Count)
system.cpu.mmu.itb.readMisses                       0                       # DTB read misses (Count)
system.cpu.mmu.itb.writeHits                        0                       # DTB write hits (Count)
system.cpu.mmu.itb.writeMisses                      0                       # DTB write misses (Count)
system.cpu.mmu.itb.inserts                          0                       # Number of times an entry is inserted into the TLB (Count)
system.cpu.mmu.itb.flushTlb                         0                       # Number of times complete TLB was flushed (Count)
system.cpu.mmu.itb.flushTlbMva                      0                       # Number of times TLB was flushed by MVA (Count)
system.cpu.mmu.itb.flushTlbMvaAsid                  0                       # Number of times TLB was flushed by MVA & ASID (Count)
system.cpu.mmu.itb.flushTlbAsid                     0                       # Number of times TLB was flushed by ASID (Count)
system.cpu.mmu.itb.flushedEntries                   0                       # Number of entries that have been flushed from TLB (Count)
system.cpu.mmu.itb.alignFaults                      0                       # Number of TLB faults due to alignment restrictions (Count)
system.cpu.mmu.itb.prefetchFaults                   0                       # Number of TLB faults due to prefetch (Count)
system.cpu.mmu.itb.domainFaults                     0                       # Number of TLB faults due to domain restrictions (Count)
system.cpu.mmu.itb.permsFaults                      0                       # Number of TLB faults due to permissions restrictions (Count)
system.cpu.mmu.itb.readAccesses                     0                       # DTB read accesses (Count)
system.cpu.mmu.itb.writeAccesses                    0                       # DTB write accesses (Count)
system.cpu.mmu.itb.instAccesses                     0                       # ITB inst accesses (Count)
system.cpu.mmu.itb.hits                             0                       # Total TLB (inst and data) hits (Count)
system.cpu.mmu.itb.misses                           0                       # Total TLB (inst and data) misses (Count)
system.cpu.mmu.itb.accesses                         0                       # Total TLB (inst and data) accesses (Count)
system.cpu.mmu.itb_walker.walks                     0                       # Table walker walks requested (Count)
system.cpu.mmu.itb_walker.requestOrigin_Requested::Data            0                       # Table walker requests started/completed, data/inst (Count)
system.cpu.mmu.itb_walker.requestOrigin_Requested::Inst            0                       # Table walker requests started/completed, data/inst (Count)
system.cpu.mmu.itb_walker.requestOrigin_Requested::total            0                       # Table walker requests started/completed, data/inst (Count)
system.cpu.mmu.itb_walker.requestOrigin_Completed::Data            0                       # Table walker requests started/completed, data/inst (Count)
system.cpu.mmu.itb_walker.requestOrigin_Completed::Inst            0                       # Table walker requests started/completed, data/inst (Count)
system.cpu.mmu.itb_walker.requestOrigin_Completed::total            0                       # Table walker requests started/completed, data/inst (Count)
system.cpu.mmu.itb_walker.requestOrigin::total            0                       # Table walker requests started/completed, data/inst (Count)
system.cpu.mmu.itb_walker.power_state.pwrStateResidencyTicks::UNDEFINED 205116229528                       # Cumulative time (in ticks) in various power states (Tick)
system.cpu.mmu.stage2_dtb.instHits                  0                       # ITB inst hits (Count)
system.cpu.mmu.stage2_dtb.instMisses                0                       # ITB inst misses (Count)
system.cpu.mmu.stage2_dtb.readHits                  0                       # DTB read hits (Count)
system.cpu.mmu.stage2_dtb.readMisses                0                       # DTB read misses (Count)
system.cpu.mmu.stage2_dtb.writeHits                 0                       # DTB write hits (Count)
system.cpu.mmu.stage2_dtb.writeMisses               0                       # DTB write misses (Count)
system.cpu.mmu.stage2_dtb.inserts                   0                       # Number of times an entry is inserted into the TLB (Count)
system.cpu.mmu.stage2_dtb.flushTlb                  0                       # Number of times complete TLB was flushed (Count)
system.cpu.mmu.stage2_dtb.flushTlbMva               0                       # Number of times TLB was flushed by MVA (Count)
system.cpu.mmu.stage2_dtb.flushTlbMvaAsid            0                       # Number of times TLB was flushed by MVA & ASID (Count)
system.cpu.mmu.stage2_dtb.flushTlbAsid              0                       # Number of times TLB was flushed by ASID (Count)
system.cpu.mmu.stage2_dtb.flushedEntries            0                       # Number of entries that have been flushed from TLB (Count)
system.cpu.mmu.stage2_dtb.alignFaults               0                       # Number of TLB faults due to alignment restrictions (Count)
system.cpu.mmu.stage2_dtb.prefetchFaults            0                       # Number of TLB faults due to prefetch (Count)
system.cpu.mmu.stage2_dtb.domainFaults              0                       # Number of TLB faults due to domain restrictions (Count)
system.cpu.mmu.stage2_dtb.permsFaults               0                       # Number of TLB faults due to permissions restrictions (Count)
system.cpu.mmu.stage2_dtb.readAccesses              0                       # DTB read accesses (Count)
system.cpu.mmu.stage2_dtb.writeAccesses             0                       # DTB write accesses (Count)
system.cpu.mmu.stage2_dtb.instAccesses              0                       # ITB inst accesses (Count)
system.cpu.mmu.stage2_dtb.hits                      0                       # Total TLB (inst and data) hits (Count)
system.cpu.mmu.stage2_dtb.misses                    0                       # Total TLB (inst and data) misses (Count)
system.cpu.mmu.stage2_dtb.accesses                  0                       # Total TLB (inst and data) accesses (Count)
system.cpu.mmu.stage2_dtb_walker.walks              0                       # Table walker walks requested (Count)
system.cpu.mmu.stage2_dtb_walker.requestOrigin_Requested::Data            0                       # Table walker requests started/completed, data/inst (Count)
system.cpu.mmu.stage2_dtb_walker.requestOrigin_Requested::Inst            0                       # Table walker requests started/completed, data/inst (Count)
system.cpu.mmu.stage2_dtb_walker.requestOrigin_Requested::total            0                       # Table walker requests started/completed, data/inst (Count)
system.cpu.mmu.stage2_dtb_walker.requestOrigin_Completed::Data            0                       # Table walker requests started/completed, data/inst (Count)
system.cpu.mmu.stage2_dtb_walker.requestOrigin_Completed::Inst            0                       # Table walker requests started/completed, data/inst (Count)
system.cpu.mmu.stage2_dtb_walker.requestOrigin_Completed::total            0                       # Table walker requests started/completed, data/inst (Count)
system.cpu.mmu.stage2_dtb_walker.requestOrigin::total            0                       # Table walker requests started/completed, data/inst (Count)
system.cpu.mmu.stage2_dtb_walker.power_state.pwrStateResidencyTicks::UNDEFINED 205116229528                       # Cumulative time (in ticks) in various power states (Tick)
system.cpu.mmu.stage2_itb.instHits                  0                       # ITB inst hits (Count)
system.cpu.mmu.stage2_itb.instMisses                0                       # ITB inst misses (Count)
system.cpu.mmu.stage2_itb.readHits                  0                       # DTB read hits (Count)
system.cpu.mmu.stage2_itb.readMisses                0                       # DTB read misses (Count)
system.cpu.mmu.stage2_itb.writeHits                 0                       # DTB write hits (Count)
system.cpu.mmu.stage2_itb.writeMisses               0                       # DTB write misses (Count)
system.cpu.mmu.stage2_itb.inserts                   0                       # Number of times an entry is inserted into the TLB (Count)
system.cpu.mmu.stage2_itb.flushTlb                  0                       # Number of times complete TLB was flushed (Count)
system.cpu.mmu.stage2_itb.flushTlbMva               0                       # Number of times TLB was flushed by MVA (Count)
system.cpu.mmu.stage2_itb.flushTlbMvaAsid            0                       # Number of times TLB was flushed by MVA & ASID (Count)
system.cpu.mmu.stage2_itb.flushTlbAsid              0                       # Number of times TLB was flushed by ASID (Count)
system.cpu.mmu.stage2_itb.flushedEntries            0                       # Number of entries that have been flushed from TLB (Count)
system.cpu.mmu.stage2_itb.alignFaults               0                       # Number of TLB faults due to alignment restrictions (Count)
system.cpu.mmu.stage2_itb.prefetchFaults            0                       # Number of TLB faults due to prefetch (Count)
system.cpu.mmu.stage2_itb.domainFaults              0                       # Number of TLB faults due to domain restrictions (Count)
system.cpu.mmu.stage2_itb.permsFaults               0                       # Number of TLB faults due to permissions restrictions (Count)
system.cpu.mmu.stage2_itb.readAccesses              0                       # DTB read accesses (Count)
system.cpu.mmu.stage2_itb.writeAccesses             0                       # DTB write accesses (Count)
system.cpu.mmu.stage2_itb.instAccesses              0                       # ITB inst accesses (Count)
system.cpu.mmu.stage2_itb.hits                      0                       # Total TLB (inst and data) hits (Count)
system.cpu.mmu.stage2_itb.misses                    0                       # Total TLB (inst and data) misses (Count)
system.cpu.mmu.stage2_itb.accesses                  0                       # Total TLB (inst and data) accesses (Count)
system.cpu.mmu.stage2_itb_walker.walks              0                       # Table walker walks requested (Count)
system.cpu.mmu.stage2_itb_walker.requestOrigin_Requested::Data            0                       # Table walker requests started/completed, data/inst (Count)
system.cpu.mmu.stage2_itb_walker.requestOrigin_Requested::Inst            0                       # Table walker requests started/completed, data/inst (Count)
system.cpu.mmu.stage2_itb_walker.requestOrigin_Requested::total            0                       # Table walker requests started/completed, data/inst (Count)
system.cpu.mmu.stage2_itb_walker.requestOrigin_Completed::Data            0                       # Table walker requests started/completed, data/inst (Count)
system.cpu.mmu.stage2_itb_walker.requestOrigin_Completed::Inst            0                       # Table walker requests started/completed, data/inst (Count)
system.cpu.mmu.stage2_itb_walker.requestOrigin_Completed::total            0                       # Table walker requests started/completed, data/inst (Count)
system.cpu.mmu.stage2_itb_walker.requestOrigin::total            0                       # Table walker requests started/completed, data/inst (Count)
system.cpu.mmu.stage2_itb_walker.power_state.pwrStateResidencyTicks::UNDEFINED 205116229528                       # Cumulative time (in ticks) in various power states (Tick)
system.cpu.power_state.pwrStateResidencyTicks::ON 205116229528                       # Cumulative time (in ticks) in various power states (Tick)
system.cpu.thread_0.numInsts                100000001                       # Number of Instructions committed (Count)
system.cpu.thread_0.numOps                  100003447                       # Number of Ops committed (Count)
system.cpu.thread_0.numMemRefs                      0                       # Number of Memory References (Count)
system.cpu.workload.numSyscalls                    19                       # Number of system calls (Count)
system.cpu_clk_domain.clock                       667                       # Clock period in ticks (Tick)
system.cpu_voltage_domain.voltage                   1                       # Voltage in Volts (Volt)
system.l2.demandHits::cpu.inst                     95                       # number of demand (read+write) hits (Count)
system.l2.demandHits::cpu.data                     13                       # number of demand (read+write) hits (Count)
system.l2.demandHits::total                       108                       # number of demand (read+write) hits (Count)
system.l2.overallHits::cpu.inst                    95                       # number of overall hits (Count)
system.l2.overallHits::cpu.data                    13                       # number of overall hits (Count)
system.l2.overallHits::total                      108                       # number of overall hits (Count)
system.l2.demandMisses::cpu.inst                  496                       # number of demand (read+write) misses (Count)
system.l2.demandMisses::cpu.data              1487602                       # number of demand (read+write) misses (Count)
system.l2.demandMisses::total                 1488098                       # number of demand (read+write) misses (Count)
system.l2.overallMisses::cpu.inst                 496                       # number of overall misses (Count)
system.l2.overallMisses::cpu.data             1487602                       # number of overall misses (Count)
system.l2.overallMisses::total                1488098                       # number of overall misses (Count)
system.l2.demandMissLatency::cpu.inst        41261287                       # number of demand (read+write) miss ticks (Tick)
system.l2.demandMissLatency::cpu.data    130542086424                       # number of demand (read+write) miss ticks (Tick)
system.l2.demandMissLatency::total       130583347711                       # number of demand (read+write) miss ticks (Tick)
system.l2.overallMissLatency::cpu.inst       41261287                       # number of overall miss ticks (Tick)
system.l2.overallMissLatency::cpu.data   130542086424                       # number of overall miss ticks (Tick)
system.l2.overallMissLatency::total      130583347711                       # number of overall miss ticks (Tick)
system.l2.demandAccesses::cpu.inst                591                       # number of demand (read+write) accesses (Count)
system.l2.demandAccesses::cpu.data            1487615                       # number of demand (read+write) accesses (Count)
system.l2.demandAccesses::total               1488206                       # number of demand (read+write) accesses (Count)
system.l2.overallAccesses::cpu.inst               591                       # number of overall (read+write) accesses (Count)
system.l2.overallAccesses::cpu.data           1487615                       # number of overall (read+write) accesses (Count)
system.l2.overallAccesses::total              1488206                       # number of overall (read+write) accesses (Count)
system.l2.demandMissRate::cpu.inst           0.839255                       # miss rate for demand accesses (Ratio)
system.l2.demandMissRate::cpu.data           0.999991                       # miss rate for demand accesses (Ratio)
system.l2.demandMissRate::total              0.999927                       # miss rate for demand accesses (Ratio)
system.l2.overallMissRate::cpu.inst          0.839255                       # miss rate for overall accesses (Ratio)
system.l2.overallMissRate::cpu.data          0.999991                       # miss rate for overall accesses (Ratio)
system.l2.overallMissRate::total             0.999927                       # miss rate for overall accesses (Ratio)
system.l2.demandAvgMissLatency::cpu.inst 83188.078629                       # average overall miss latency ((Cycle/Count))
system.l2.demandAvgMissLatency::cpu.data 87753.368457                       # average overall miss latency ((Cycle/Count))
system.l2.demandAvgMissLatency::total    87751.846794                       # average overall miss latency ((Cycle/Count))
system.l2.overallAvgMissLatency::cpu.inst 83188.078629                       # average overall miss latency ((Cycle/Count))
system.l2.overallAvgMissLatency::cpu.data 87753.368457                       # average overall miss latency ((Cycle/Count))
system.l2.overallAvgMissLatency::total   87751.846794                       # average overall miss latency ((Cycle/Count))
system.l2.blockedCycles::no_mshrs                   0                       # number of cycles access was blocked (Cycle)
system.l2.blockedCycles::no_targets                 0                       # number of cycles access was blocked (Cycle)
system.l2.blockedCauses::no_mshrs                   0                       # number of times access was blocked (Count)
system.l2.blockedCauses::no_targets                 0                       # number of times access was blocked (Count)
system.l2.avgBlocked::no_mshrs                    nan                       # average number of cycles each access was blocked ((Cycle/Count))
system.l2.avgBlocked::no_targets                  nan                       # average number of cycles each access was blocked ((Cycle/Count))
system.l2.writebacks::writebacks              1454742                       # number of writebacks (Count)
system.l2.writebacks::total                   1454742                       # number of writebacks (Count)
system.l2.demandMshrHits::cpu.inst                  2                       # number of demand (read+write) MSHR hits (Count)
system.l2.demandMshrHits::cpu.data                  1                       # number of demand (read+write) MSHR hits (Count)
system.l2.demandMshrHits::total                     3                       # number of demand (read+write) MSHR hits (Count)
system.l2.overallMshrHits::cpu.inst                 2                       # number of overall MSHR hits (Count)
system.l2.overallMshrHits::cpu.data                 1                       # number of overall MSHR hits (Count)
system.l2.overallMshrHits::total                    3                       # number of overall MSHR hits (Count)
system.l2.demandMshrMisses::cpu.inst              494                       # number of demand (read+write) MSHR misses (Count)
system.l2.demandMshrMisses::cpu.data          1487601                       # number of demand (read+write) MSHR misses (Count)
system.l2.demandMshrMisses::total             1488095                       # number of demand (read+write) MSHR misses (Count)
system.l2.overallMshrMisses::cpu.inst             494                       # number of overall MSHR misses (Count)
system.l2.overallMshrMisses::cpu.data         1487601                       # number of overall MSHR misses (Count)
system.l2.overallMshrMisses::total            1488095                       # number of overall MSHR misses (Count)
system.l2.demandMshrMissLatency::cpu.inst     34396802                       # number of demand (read+write) MSHR miss ticks (Tick)
system.l2.demandMshrMissLatency::cpu.data 110268012895                       # number of demand (read+write) MSHR miss ticks (Tick)
system.l2.demandMshrMissLatency::total   110302409697                       # number of demand (read+write) MSHR miss ticks (Tick)
system.l2.overallMshrMissLatency::cpu.inst     34396802                       # number of overall MSHR miss ticks (Tick)
system.l2.overallMshrMissLatency::cpu.data 110268012895                       # number of overall MSHR miss ticks (Tick)
system.l2.overallMshrMissLatency::total  110302409697                       # number of overall MSHR miss ticks (Tick)
system.l2.demandMshrMissRate::cpu.inst       0.835871                       # mshr miss ratio for demand accesses (Ratio)
system.l2.demandMshrMissRate::cpu.data       0.999991                       # mshr miss ratio for demand accesses (Ratio)
system.l2.demandMshrMissRate::total          0.999925                       # mshr miss ratio for demand accesses (Ratio)
system.l2.overallMshrMissRate::cpu.inst      0.835871                       # mshr miss ratio for overall accesses (Ratio)
system.l2.overallMshrMissRate::cpu.data      0.999991                       # mshr miss ratio for overall accesses (Ratio)
system.l2.overallMshrMissRate::total         0.999925                       # mshr miss ratio for overall accesses (Ratio)
system.l2.demandAvgMshrMissLatency::cpu.inst 69629.153846                       # average overall mshr miss latency ((Cycle/Count))
system.l2.demandAvgMshrMissLatency::cpu.data 74124.723562                       # average overall mshr miss latency ((Cycle/Count))
system.l2.demandAvgMshrMissLatency::total 74123.231176                       # average overall mshr miss latency ((Cycle/Count))
system.l2.overallAvgMshrMissLatency::cpu.inst 69629.153846                       # average overall mshr miss latency ((Cycle/Count))
system.l2.overallAvgMshrMissLatency::cpu.data 74124.723562                       # average overall mshr miss latency ((Cycle/Count))
system.l2.overallAvgMshrMissLatency::total 74123.231176                       # average overall mshr miss latency ((Cycle/Count))
system.l2.replacements                        1455327                       # number of replacements (Count)
system.l2.ReadCleanReq.hits::cpu.inst              95                       # number of ReadCleanReq hits (Count)
system.l2.ReadCleanReq.hits::total                 95                       # number of ReadCleanReq hits (Count)
system.l2.ReadCleanReq.misses::cpu.inst           496                       # number of ReadCleanReq misses (Count)
system.l2.ReadCleanReq.misses::total              496                       # number of ReadCleanReq misses (Count)
system.l2.ReadCleanReq.missLatency::cpu.inst     41261287                       # number of ReadCleanReq miss ticks (Tick)
system.l2.ReadCleanReq.missLatency::total     41261287                       # number of ReadCleanReq miss ticks (Tick)
system.l2.ReadCleanReq.accesses::cpu.inst          591                       # number of ReadCleanReq accesses(hits+misses) (Count)
system.l2.ReadCleanReq.accesses::total            591                       # number of ReadCleanReq accesses(hits+misses) (Count)
system.l2.ReadCleanReq.missRate::cpu.inst     0.839255                       # miss rate for ReadCleanReq accesses (Ratio)
system.l2.ReadCleanReq.missRate::total       0.839255                       # miss rate for ReadCleanReq accesses (Ratio)
system.l2.ReadCleanReq.avgMissLatency::cpu.inst 83188.078629                       # average ReadCleanReq miss latency ((Tick/Count))
system.l2.ReadCleanReq.avgMissLatency::total 83188.078629                       # average ReadCleanReq miss latency ((Tick/Count))
system.l2.ReadCleanReq.mshrHits::cpu.inst            2                       # number of ReadCleanReq MSHR hits (Count)
system.l2.ReadCleanReq.mshrHits::total              2                       # number of ReadCleanReq MSHR hits (Count)
system.l2.ReadCleanReq.mshrMisses::cpu.inst          494                       # number of ReadCleanReq MSHR misses (Count)
system.l2.ReadCleanReq.mshrMisses::total          494                       # number of ReadCleanReq MSHR misses (Count)
system.l2.ReadCleanReq.mshrMissLatency::cpu.inst     34396802                       # number of ReadCleanReq MSHR miss ticks (Tick)
system.l2.ReadCleanReq.mshrMissLatency::total     34396802                       # number of ReadCleanReq MSHR miss ticks (Tick)
system.l2.ReadCleanReq.mshrMissRate::cpu.inst     0.835871                       # mshr miss rate for ReadCleanReq accesses (Ratio)
system.l2.ReadCleanReq.mshrMissRate::total     0.835871                       # mshr miss rate for ReadCleanReq accesses (Ratio)
system.l2.ReadCleanReq.avgMshrMissLatency::cpu.inst 69629.153846                       # average ReadCleanReq mshr miss latency ((Tick/Count))
system.l2.ReadCleanReq.avgMshrMissLatency::total 69629.153846                       # average ReadCleanReq mshr miss latency ((Tick/Count))
system.l2.ReadExReq.misses::cpu.data          1487496                       # number of ReadExReq misses (Count)
system.l2.ReadExReq.misses::total             1487496                       # number of ReadExReq misses (Count)
system.l2.ReadExReq.missLatency::cpu.data 130532983208                       # number of ReadExReq miss ticks (Tick)
system.l2.ReadExReq.missLatency::total   130532983208                       # number of ReadExReq miss ticks (Tick)
system.l2.ReadExReq.accesses::cpu.data        1487496                       # number of ReadExReq accesses(hits+misses) (Count)
system.l2.ReadExReq.accesses::total           1487496                       # number of ReadExReq accesses(hits+misses) (Count)
system.l2.ReadExReq.missRate::cpu.data              1                       # miss rate for ReadExReq accesses (Ratio)
system.l2.ReadExReq.missRate::total                 1                       # miss rate for ReadExReq accesses (Ratio)
system.l2.ReadExReq.avgMissLatency::cpu.data 87753.501998                       # average ReadExReq miss latency ((Tick/Count))
system.l2.ReadExReq.avgMissLatency::total 87753.501998                       # average ReadExReq miss latency ((Tick/Count))
system.l2.ReadExReq.mshrMisses::cpu.data      1487496                       # number of ReadExReq MSHR misses (Count)
system.l2.ReadExReq.mshrMisses::total         1487496                       # number of ReadExReq MSHR misses (Count)
system.l2.ReadExReq.mshrMissLatency::cpu.data 110260408647                       # number of ReadExReq MSHR miss ticks (Tick)
system.l2.ReadExReq.mshrMissLatency::total 110260408647                       # number of ReadExReq MSHR miss ticks (Tick)
system.l2.ReadExReq.mshrMissRate::cpu.data            1                       # mshr miss rate for ReadExReq accesses (Ratio)
system.l2.ReadExReq.mshrMissRate::total             1                       # mshr miss rate for ReadExReq accesses (Ratio)
system.l2.ReadExReq.avgMshrMissLatency::cpu.data 74124.843796                       # average ReadExReq mshr miss latency ((Tick/Count))
system.l2.ReadExReq.avgMshrMissLatency::total 74124.843796                       # average ReadExReq mshr miss latency ((Tick/Count))
system.l2.ReadSharedReq.hits::cpu.data             13                       # number of ReadSharedReq hits (Count)
system.l2.ReadSharedReq.hits::total                13                       # number of ReadSharedReq hits (Count)
system.l2.ReadSharedReq.misses::cpu.data          106                       # number of ReadSharedReq misses (Count)
system.l2.ReadSharedReq.misses::total             106                       # number of ReadSharedReq misses (Count)
system.l2.ReadSharedReq.missLatency::cpu.data      9103216                       # number of ReadSharedReq miss ticks (Tick)
system.l2.ReadSharedReq.missLatency::total      9103216                       # number of ReadSharedReq miss ticks (Tick)
system.l2.ReadSharedReq.accesses::cpu.data          119                       # number of ReadSharedReq accesses(hits+misses) (Count)
system.l2.ReadSharedReq.accesses::total           119                       # number of ReadSharedReq accesses(hits+misses) (Count)
system.l2.ReadSharedReq.missRate::cpu.data     0.890756                       # miss rate for ReadSharedReq accesses (Ratio)
system.l2.ReadSharedReq.missRate::total      0.890756                       # miss rate for ReadSharedReq accesses (Ratio)
system.l2.ReadSharedReq.avgMissLatency::cpu.data 85879.396226                       # average ReadSharedReq miss latency ((Tick/Count))
system.l2.ReadSharedReq.avgMissLatency::total 85879.396226                       # average ReadSharedReq miss latency ((Tick/Count))
system.l2.ReadSharedReq.mshrHits::cpu.data            1                       # number of ReadSharedReq MSHR hits (Count)
system.l2.ReadSharedReq.mshrHits::total             1                       # number of ReadSharedReq MSHR hits (Count)
system.l2.ReadSharedReq.mshrMisses::cpu.data          105                       # number of ReadSharedReq MSHR misses (Count)
system.l2.ReadSharedReq.mshrMisses::total          105                       # number of ReadSharedReq MSHR misses (Count)
system.l2.ReadSharedReq.mshrMissLatency::cpu.data      7604248                       # number of ReadSharedReq MSHR miss ticks (Tick)
system.l2.ReadSharedReq.mshrMissLatency::total      7604248                       # number of ReadSharedReq MSHR miss ticks (Tick)
system.l2.ReadSharedReq.mshrMissRate::cpu.data     0.882353                       # mshr miss rate for ReadSharedReq accesses (Ratio)
system.l2.ReadSharedReq.mshrMissRate::total     0.882353                       # mshr miss rate for ReadSharedReq accesses (Ratio)
system.l2.ReadSharedReq.avgMshrMissLatency::cpu.data 72421.409524                       # average ReadSharedReq mshr miss latency ((Tick/Count))
system.l2.ReadSharedReq.avgMshrMissLatency::total 72421.409524                       # average ReadSharedReq mshr miss latency ((Tick/Count))
system.l2.WritebackClean.hits::writebacks          241                       # number of WritebackClean hits (Count)
system.l2.WritebackClean.hits::total              241                       # number of WritebackClean hits (Count)
system.l2.WritebackClean.accesses::writebacks          241                       # number of WritebackClean accesses(hits+misses) (Count)
system.l2.WritebackClean.accesses::total          241                       # number of WritebackClean accesses(hits+misses) (Count)
system.l2.WritebackDirty.hits::writebacks      1486489                       # number of WritebackDirty hits (Count)
system.l2.WritebackDirty.hits::total          1486489                       # number of WritebackDirty hits (Count)
system.l2.WritebackDirty.accesses::writebacks      1486489                       # number of WritebackDirty accesses(hits+misses) (Count)
system.l2.WritebackDirty.accesses::total      1486489                       # number of WritebackDirty accesses(hits+misses) (Count)
system.l2.power_state.pwrStateResidencyTicks::UNDEFINED 205116229528                       # Cumulative time (in ticks) in various power states (Tick)
system.l2.tags.tagsInUse                 32425.111671                       # Average ticks per tags in use ((Tick/Count))
system.l2.tags.totalRefs                      2975018                       # Total number of references to valid blocks. (Count)
system.l2.tags.sampledRefs                    1488095                       # Sample count of references to valid blocks. (Count)
system.l2.tags.avgRefs                       1.999212                       # Average number of references to valid blocks. ((Count/Count))
system.l2.tags.warmupTick                       80000                       # The tick when the warmup percentage was hit. (Tick)
system.l2.tags.occupancies::cpu.inst         9.990041                       # Average occupied blocks per tick, per requestor ((Count/Tick))
system.l2.tags.occupancies::cpu.data     32415.121630                       # Average occupied blocks per tick, per requestor ((Count/Tick))
system.l2.tags.avgOccs::cpu.inst             0.000305                       # Average percentage of cache occupancy ((Ratio/Tick))
system.l2.tags.avgOccs::cpu.data             0.989231                       # Average percentage of cache occupancy ((Ratio/Tick))
system.l2.tags.avgOccs::total                0.989536                       # Average percentage of cache occupancy ((Ratio/Tick))
system.l2.tags.occupanciesTaskId::1024          32768                       # Occupied blocks per task id (Count)
system.l2.tags.ageTaskId_1024::0                   73                       # Occupied blocks per task id, per block age (Count)
system.l2.tags.ageTaskId_1024::1                  652                       # Occupied blocks per task id, per block age (Count)
system.l2.tags.ageTaskId_1024::2                 6524                       # Occupied blocks per task id, per block age (Count)
system.l2.tags.ageTaskId_1024::3                25519                       # Occupied blocks per task id, per block age (Count)
system.l2.tags.ratioOccsTaskId::1024                1                       # Ratio of occupied blocks and all blocks, per task id (Ratio)
system.l2.tags.tagAccesses                   25288263                       # Number of tag accesses (Count)
system.l2.tags.dataAccesses                  25288263                       # Number of data accesses (Count)
system.l2.tags.power_state.pwrStateResidencyTicks::UNDEFINED 205116229528                       # Cumulative time (in ticks) in various power states (Tick)
system.mem_ctrls.avgPriority_writebacks::samples   1454742.00                       # Average QoS priority value for accepted requests (Count)
system.mem_ctrls.avgPriority_cpu.inst::samples       494.00                       # Average QoS priority value for accepted requests (Count)
system.mem_ctrls.avgPriority_cpu.data::samples   1487601.00                       # Average QoS priority value for accepted requests (Count)
system.mem_ctrls.priorityMinLatency      0.000000018750                       # per QoS priority minimum request to response latency (Second)
system.mem_ctrls.priorityMaxLatency      0.000089766678                       # per QoS priority maximum request to response latency (Second)
system.mem_ctrls.numReadWriteTurnArounds        87880                       # Number of turnarounds from READ to WRITE (Count)
system.mem_ctrls.numWriteReadTurnArounds        87880                       # Number of turnarounds from WRITE to READ (Count)
[...]
system.mem_ctrls.dram.perBankWrBursts::8        91008                       # Per bank write bursts (Count)
system.mem_ctrls.dram.perBankWrBursts::9        91008                       # Per bank write bursts (Count)
system.mem_ctrls.dram.perBankWrBursts::10        90992                       # Per bank write bursts (Count)
system.mem_ctrls.dram.perBankWrBursts::11        90880                       # Per bank write bursts (Count)
system.mem_ctrls.dram.perBankWrBursts::12        90880                       # Per bank write bursts (Count)
system.mem_ctrls.dram.perBankWrBursts::13        90880                       # Per bank write bursts (Count)
system.mem_ctrls.dram.perBankWrBursts::14        90880                       # Per bank write bursts (Count)
system.mem_ctrls.dram.perBankWrBursts::15        90880                       # Per bank write bursts (Count)
system.mem_ctrls.dram.totQLat             15801006928                       # Total ticks spent queuing (Tick)
system.mem_ctrls.dram.totBusLat            7440475000                       # Total ticks spent in databus transfers (Tick)
system.mem_ctrls.dram.totMemAccLat        43702788178                       # Total ticks spent from burst creation until serviced by the DRAM (Tick)
system.mem_ctrls.dram.avgQLat                10618.28                       # Average queueing delay per DRAM burst ((Tick/Count))
system.mem_ctrls.dram.avgBusLat               5000.00                       # Average bus latency per DRAM burst ((Tick/Count))
system.mem_ctrls.dram.avgMemAccLat           29368.28                       # Average memory access latency per DRAM burst ((Tick/Count))
system.mem_ctrls.dram.readRowHits             1338713                       # Number of row buffer hits during reads (Count)
system.mem_ctrls.dram.writeRowHits            1326433                       # Number of row buffer hits during writes (Count)
system.mem_ctrls.dram.readRowHitRate            89.96                       # Row buffer hit rate for reads (Ratio)
system.mem_ctrls.dram.writeRowHitRate           91.18                       # Row buffer hit rate for writes (Ratio)
system.mem_ctrls.dram.bytesPerActivate::samples       277672                       # Bytes accessed per row activation (Byte)
system.mem_ctrls.dram.bytesPerActivate::mean   678.283558                       # Bytes accessed per row activation (Byte)
system.mem_ctrls.dram.bytesPerActivate::gmean   457.632766                       # Bytes accessed per row activation (Byte)
system.mem_ctrls.dram.bytesPerActivate::stdev   405.054851                       # Bytes accessed per row activation (Byte)
system.mem_ctrls.dram.bytesPerActivate::0-127        49441     17.81%     17.81% # Bytes accessed per row activation (Byte)
system.mem_ctrls.dram.bytesPerActivate::128-255        23407      8.43%     26.24% # Bytes accessed per row activation (Byte)
system.mem_ctrls.dram.bytesPerActivate::256-383        11577      4.17%     30.40% # Bytes accessed per row activation (Byte)
system.mem_ctrls.dram.bytesPerActivate::384-511        11678      4.21%     34.61% # Bytes accessed per row activation (Byte)
system.mem_ctrls.dram.bytesPerActivate::512-639         9954      3.58%     38.20% # Bytes accessed per row activation (Byte)
system.mem_ctrls.dram.bytesPerActivate::640-767        11577      4.17%     42.36% # Bytes accessed per row activation (Byte)
system.mem_ctrls.dram.bytesPerActivate::768-895        10718      3.86%     46.22% # Bytes accessed per row activation (Byte)
system.mem_ctrls.dram.bytesPerActivate::896-1023        10994      3.96%     50.18% # Bytes accessed per row activation (Byte)
system.mem_ctrls.dram.bytesPerActivate::1024-1151       138326     49.82%    100.00% # Bytes accessed per row activation (Byte)
system.mem_ctrls.dram.bytesPerActivate::total       277672                       # Bytes accessed per row activation (Byte)
system.mem_ctrls.dram.bytesRead              95238080                       # Total number of bytes read from DRAM (Byte)
system.mem_ctrls.dram.bytesWritten           93102400                       # Total number of bytes written to DRAM (Byte)
system.mem_ctrls.dram.avgRdBW              464.312747                       # Average DRAM read bandwidth in MiBytes/s ((Byte/Second))
system.mem_ctrls.dram.avgWrBW              453.900699                       # Average DRAM write bandwidth in MiBytes/s ((Byte/Second))
system.mem_ctrls.dram.peakBW                 12800.00                       # Theoretical peak bandwidth in MiByte/s ((Byte/Second))
system.mem_ctrls.dram.busUtil                    7.17                       # Data bus utilization in percentage (Ratio)
system.mem_ctrls.dram.busUtilRead                3.63                       # Data bus utilization in percentage for reads (Ratio)
system.mem_ctrls.dram.busUtilWrite               3.55                       # Data bus utilization in percentage for writes (Ratio)
system.mem_ctrls.dram.pageHitRate               90.56                       # Row buffer hit rate, read and write combined (Ratio)
system.mem_ctrls.dram.power_state.pwrStateResidencyTicks::UNDEFINED 205116229528                       # Cumulative time (in ticks) in various power states (Tick)
system.mem_ctrls.dram.rank0.actEnergy       991067700                       # Energy for activate commands per rank (pJ) (Joule)
system.mem_ctrls.dram.rank0.preEnergy       526764975                       # Energy for precharge commands per rank (pJ) (Joule)
system.mem_ctrls.dram.rank0.readEnergy     5312188560                       # Energy for read commands per rank (pJ) (Joule)
system.mem_ctrls.dram.rank0.writeEnergy    3796594740                       # Energy for write commands per rank (pJ) (Joule)
system.mem_ctrls.dram.rank0.refreshEnergy 16191461520.000002                       # Energy for refresh commands per rank (pJ) (Joule)
system.mem_ctrls.dram.rank0.actBackEnergy  48242835210                       # Energy for active background per rank (pJ) (Joule)
system.mem_ctrls.dram.rank0.preBackEnergy  38139086880                       # Energy for precharge background per rank (pJ) (Joule)
system.mem_ctrls.dram.rank0.actPowerDownEnergy            0                       # Energy for active power-down per rank (pJ) (Joule)
system.mem_ctrls.dram.rank0.prePowerDownEnergy            0                       # Energy for precharge power-down per rank (pJ) (Joule)
system.mem_ctrls.dram.rank0.selfRefreshEnergy            0                       # Energy for self refresh per rank (pJ) (Joule)
system.mem_ctrls.dram.rank0.totalEnergy  113199999585                       # Total energy per rank (pJ) (Joule)
system.mem_ctrls.dram.rank0.averagePower   551.882217                       # Core power per rank (mW) (Watt)
system.mem_ctrls.dram.rank0.totalIdleTime            0                       # Total Idle time Per DRAM Rank (Tick)
system.mem_ctrls.dram.rank0.pwrStateTime::IDLE  97636012770                       # Time in different power states (Tick)
system.mem_ctrls.dram.rank0.pwrStateTime::REF   6849180000                       # Time in different power states (Tick)
system.mem_ctrls.dram.rank0.pwrStateTime::SREF            0                       # Time in different power states (Tick)
system.mem_ctrls.dram.rank0.pwrStateTime::PRE_PDN            0                       # Time in different power states (Tick)
system.mem_ctrls.dram.rank0.pwrStateTime::ACT 100631036758                       # Time in different power states (Tick)
system.mem_ctrls.dram.rank0.pwrStateTime::ACT_PDN            0                       # Time in different power states (Tick)
system.mem_ctrls.dram.rank1.actEnergy       991524660                       # Energy for activate commands per rank (pJ) (Joule)
system.mem_ctrls.dram.rank1.preEnergy       527000265                       # Energy for precharge commands per rank (pJ) (Joule)
system.mem_ctrls.dram.rank1.readEnergy     5312809740                       # Energy for read commands per rank (pJ) (Joule)
system.mem_ctrls.dram.rank1.writeEnergy    3797069760                       # Energy for write commands per rank (pJ) (Joule)
system.mem_ctrls.dram.rank1.refreshEnergy 16191461520.000002                       # Energy for refresh commands per rank (pJ) (Joule)
system.mem_ctrls.dram.rank1.actBackEnergy  48285665580                       # Energy for active background per rank (pJ) (Joule)
system.mem_ctrls.dram.rank1.preBackEnergy  38103019200                       # Energy for precharge background per rank (pJ) (Joule)
system.mem_ctrls.dram.rank1.actPowerDownEnergy            0                       # Energy for active power-down per rank (pJ) (Joule)
system.mem_ctrls.dram.rank1.prePowerDownEnergy            0                       # Energy for precharge power-down per rank (pJ) (Joule)
system.mem_ctrls.dram.rank1.selfRefreshEnergy            0                       # Energy for self refresh per rank (pJ) (Joule)
system.mem_ctrls.dram.rank1.totalEnergy  113208550725                       # Total energy per rank (pJ) (Joule)
system.mem_ctrls.dram.rank1.averagePower   551.923907                       # Core power per rank (mW) (Watt)
system.mem_ctrls.dram.rank1.totalIdleTime            0                       # Total Idle time Per DRAM Rank (Tick)
system.mem_ctrls.dram.rank1.pwrStateTime::IDLE  97548348157                       # Time in different power states (Tick)
system.mem_ctrls.dram.rank1.pwrStateTime::REF   6849180000                       # Time in different power states (Tick)
system.mem_ctrls.dram.rank1.pwrStateTime::SREF            0                       # Time in different power states (Tick)
system.mem_ctrls.dram.rank1.pwrStateTime::PRE_PDN            0                       # Time in different power states (Tick)
system.mem_ctrls.dram.rank1.pwrStateTime::ACT 100718701371                       # Time in different power states (Tick)
system.mem_ctrls.dram.rank1.pwrStateTime::ACT_PDN            0                       # Time in different power states (Tick)
system.mem_ctrls.power_state.pwrStateResidencyTicks::UNDEFINED 205116229528                       # Cumulative time (in ticks) in various power states (Tick)
system.membus.transDist::ReadResp                 599                       # Transaction distribution (Count)
system.membus.transDist::WritebackDirty       1454742                       # Transaction distribution (Count)
system.membus.transDist::CleanEvict               252                       # Transaction distribution (Count)
system.membus.transDist::ReadExReq            1487496                       # Transaction distribution (Count)
system.membus.transDist::ReadExResp           1487496                       # Transaction distribution (Count)
system.membus.transDist::ReadSharedReq            599                       # Transaction distribution (Count)
system.membus.pktCount_system.l2.mem_side_port::system.mem_ctrls.port      4431184                       # Packet count per connected requestor and responder (Count)
system.membus.pktCount::total                 4431184                       # Packet count per connected requestor and responder (Count)
system.membus.pktSize_system.l2.mem_side_port::system.mem_ctrls.port    188341568                       # Cumulative packet size per connected requestor and responder (Byte)
system.membus.pktSize::total                188341568                       # Cumulative packet size per connected requestor and responder (Byte)
system.membus.snoops                                0                       # Total snoops (Count)
system.membus.snoopTraffic                          0                       # Total snoop traffic (Byte)
system.membus.snoopFanout::samples            1488095                       # Request fanout histogram
system.membus.snoopFanout::mean                     0                       # Request fanout histogram
system.membus.snoopFanout::stdev                    0                       # Request fanout histogram
system.membus.snoopFanout::underflows               0      0.00%      0.00% # Request fanout histogram
system.membus.snoopFanout::0                  1488095    100.00%    100.00% # Request fanout histogram
system.membus.snoopFanout::1                        0      0.00%    100.00% # Request fanout histogram
system.membus.snoopFanout::overflows                0      0.00%    100.00% # Request fanout histogram
system.membus.snoopFanout::min_value                0                       # Request fanout histogram
system.membus.snoopFanout::max_value                0                       # Request fanout histogram
system.membus.snoopFanout::total              1488095                       # Request fanout histogram
system.membus.power_state.pwrStateResidencyTicks::UNDEFINED 205116229528                       # Cumulative time (in ticks) in various power states (Tick)
system.membus.reqLayer0.occupancy         10008187241                       # Layer occupancy (ticks) (Tick)
system.membus.reqLayer0.utilization               0.0                       # Layer utilization (Ratio)
system.membus.respLayer1.occupancy         7858185991                       # Layer occupancy (ticks) (Tick)
system.membus.respLayer1.utilization              0.0                       # Layer utilization (Ratio)
system.membus.snoop_filter.totRequests        2943089                       # Total number of requests made to the snoop filter. (Count)
system.membus.snoop_filter.hitSingleRequests      1454994                       # Number of requests hitting in the snoop filter with a single holder of the requested data. (Count)
system.membus.snoop_filter.hitMultiRequests            0                       # Number of requests hitting in the snoop filter with multiple (>1) holders of the requested data. (Count)
system.membus.snoop_filter.totSnoops                0                       # Total number of snoops made to the snoop filter. (Count)
system.membus.snoop_filter.hitSingleSnoops            0                       # Number of snoops hitting in the snoop filter with a single holder of the requested data. (Count)
system.membus.snoop_filter.hitMultiSnoops            0                       # Number of snoops hitting in the snoop filter with multiple (>1) holders of the requested data. (Count)
system.tol2bus.transDist::ReadResp                710                       # Transaction distribution (Count)
system.tol2bus.transDist::WritebackDirty      2941231                       # Transaction distribution (Count)
system.tol2bus.transDist::WritebackClean          260                       # Transaction distribution (Count)
system.tol2bus.transDist::CleanEvict              687                       # Transaction distribution (Count)
system.tol2bus.transDist::ReadExReq           1487496                       # Transaction distribution (Count)
system.tol2bus.transDist::ReadExResp          1487496                       # Transaction distribution (Count)
system.tol2bus.transDist::ReadCleanReq            591                       # Transaction distribution (Count)
system.tol2bus.transDist::ReadSharedReq           119                       # Transaction distribution (Count)
system.tol2bus.pktCount_system.cpu.icache.mem_side_port::system.l2.cpu_side_port         1442                       # Packet count per connected requestor and responder (Count)
system.tol2bus.pktCount_system.cpu.dcache.mem_side_port::system.l2.cpu_side_port      4461821                       # Packet count per connected requestor and responder (Count)
system.tol2bus.pktCount::total                4463263                       # Packet count per connected requestor and responder (Count)
system.tol2bus.pktSize_system.cpu.icache.mem_side_port::system.l2.cpu_side_port        54464                       # Cumulative packet size per connected requestor and responder (Byte)
system.tol2bus.pktSize_system.cpu.dcache.mem_side_port::system.l2.cpu_side_port    190342656                       # Cumulative packet size per connected requestor and responder (Byte)
system.tol2bus.pktSize::total               190397120                       # Cumulative packet size per connected requestor and responder (Byte)
system.tol2bus.snoops                         1455327                       # Total snoops (Count)
system.tol2bus.snoopTraffic                  93103488                       # Total snoop traffic (Byte)
system.tol2bus.snoopFanout::samples           2943533                       # Request fanout histogram
system.tol2bus.snoopFanout::mean             0.000126                       # Request fanout histogram
system.tol2bus.snoopFanout::stdev            0.011256                       # Request fanout histogram
system.tol2bus.snoopFanout::underflows              0      0.00%      0.00% # Request fanout histogram
system.tol2bus.snoopFanout::0                 2943163     99.99%     99.99% # Request fanout histogram
system.tol2bus.snoopFanout::1                     369      0.01%    100.00% # Request fanout histogram
system.tol2bus.snoopFanout::2                       1      0.00%    100.00% # Request fanout histogram
system.tol2bus.snoopFanout::overflows               0      0.00%    100.00% # Request fanout histogram
system.tol2bus.snoopFanout::min_value               0                       # Request fanout histogram
system.tol2bus.snoopFanout::max_value               2                       # Request fanout histogram
system.tol2bus.snoopFanout::total             2943533                       # Request fanout histogram
system.tol2bus.power_state.pwrStateResidencyTicks::UNDEFINED 205116229528                       # Cumulative time (in ticks) in various power states (Tick)
system.tol2bus.reqLayer0.occupancy         3967686185                       # Layer occupancy (ticks) (Tick)
system.tol2bus.reqLayer0.utilization              0.0                       # Layer utilization (Ratio)
system.tol2bus.respLayer0.occupancy           1183923                       # Layer occupancy (ticks) (Tick)
system.tol2bus.respLayer0.utilization             0.0                       # Layer utilization (Ratio)
system.tol2bus.respLayer1.occupancy        2976718281                       # Layer occupancy (ticks) (Tick)
system.tol2bus.respLayer1.utilization             0.0                       # Layer utilization (Ratio)
system.tol2bus.snoop_filter.totRequests       2975057                       # Total number of requests made to the snoop filter. (Count)
system.tol2bus.snoop_filter.hitSingleRequests      1486852                       # Number of requests hitting in the snoop filter with a single holder of the requested data. (Count)
system.tol2bus.snoop_filter.hitMultiRequests           36                       # Number of requests hitting in the snoop filter with multiple (>1) holders of the requested data. (Count)
system.tol2bus.snoop_filter.totSnoops             333                       # Total number of snoops made to the snoop filter. (Count)
system.tol2bus.snoop_filter.hitSingleSnoops          332                       # Number of snoops hitting in the snoop filter with a single holder of the requested data. (Count)
system.tol2bus.snoop_filter.hitMultiSnoops            1                       # Number of snoops hitting in the snoop filter with multiple (>1) holders of the requested data. (Count)
system.voltage_domain.voltage                       1                       # Voltage in Volts (Volt)
system.workload.inst.arm                            0                       # number of arm instructions executed (Count)
system.workload.inst.quiesce                        0                       # number of quiesce instructions executed (Count)
system.cpu.idleCycles                       190169737                       # Total number of cycles that the object has spent stopped (Unspecified)
system.cpu.tickCycles                       117350847                       # Number of cycles that the object actually ticked (Unspecified)

---------- End Simulation Statistics   ----------
