
---------- Begin Simulation Statistics ----------
simSeconds                                   0.165506                       # Number of seconds simulated (Second)
simTicks                                 165506226000                       # Number of ticks simulated (Tick)
finalTick                                165506226000                       # Number of ticks from beginning of simulation (restored from checkpoints and never reset) (Tick)
simFreq                                  1000000000000                       # The number of ticks per simulated second ((Tick/Second))
hostSeconds                                    325.22                       # Real time elapsed on the host (Second)
hostTickRate                                508907945                       # The number of ticks simulated per host second (ticks/s) ((Tick/Second))
hostMemory                                     721240                       # Number of bytes of host memory used (Byte)
simInsts                                    100000001                       # Number of instructions simulated (Count)
simOps                                      100003447                       # Number of ops (including micro ops) simulated (Count)
hostInstRate                                   307486                       # Simulator instruction rate (inst/s) ((Count/Second))
hostOpRate                                     307496                       # Simulator op (including micro ops) rate (op/s) ((Count/Second))
system.clk_domain.clock                          1000                       # Clock period in ticks (Tick)
system.cpu.numCycles                        165506226                       # Number of cpu cycles simulated (Cycle)
system.cpu.numWorkItemsStarted                      0                       # Number of work items this cpu started (Count)
system.cpu.numWorkItemsCompleted                    0                       # Number of work items this cpu completed (Count)
system.cpu.numInsts                         100000001                       # Number of instructions committed (Count)
system.cpu.numOps                           100003447                       # Number of ops (including micro ops) committed (Count)
system.cpu.numDiscardedOps                      21214                       # Number of ops (including micro ops) which were discarded before commit (Count)
system.cpu.numFetchSuspends                         0                       # Number of times Execute suspended instruction fetching (Count)
system.cpu.cpi                               1.655062                       # CPI: cycles per instruction ((Cycle/Count))
system.cpu.ipc                               0.604207                       # IPC: instructions per cycle ((Count/Cycle))
system.cpu.committedInstType_0::No_OpClass            0      0.00%      0.00% # Class of committed instruction (Count)
system.cpu.committedInstType_0::IntAlu       49995247     49.99%     49.99% # Class of committed instruction (Count)
system.cpu.committedInstType_0::IntMult            85      0.00%     49.99% # Class of committed instruction (Count)
system.cpu.committedInstType_0::IntDiv              0      0.00%     49.99% # Class of committed instruction (Count)
system.cpu.committedInstType_0::FloatAdd            0      0.00%     49.99% # Class of committed instruction (Count)
system.cpu.committedInstType_0::FloatCmp            0      0.00%     49.99% # Class of committed instruction (Count)
system.cpu.committedInstType_0::FloatCvt            0      0.00%     49.99% # Class of committed instruction (Count)
system.cpu.committedInstType_0::FloatMult            0      0.00%     49.99% # Class of committed instruction (Count)
system.cpu.committedInstType_0::FloatMultAcc            0      0.00%     49.99% # Class of committed instruction (Count)
system.cpu.committedInstType_0::FloatDiv            0      0.00%     49.99% # Class of committed instruction (Count)
system.cpu.committedInstType_0::FloatMisc            0      0.00%     49.99% # Class of committed instruction (Count)
system.cpu.committedInstType_0::FloatSqrt            0      0.00%     49.99% # Class of committed instruction (Count)
system.cpu.committedInstType_0::SimdAdd             0      0.00%     49.99% # Class of committed instruction (Count)
system.cpu.committedInstType_0::SimdAddAcc            0      0.00%     49.99% # Class of committed instruction (Count)
system.cpu.committedInstType_0::SimdAlu             0      0.00%     49.99% # Class of committed instruction (Count)
system.cpu.committedInstType_0::SimdCmp             0      0.00%     49.99% # Class of committed instruction (Count)
system.cpu.committedInstType_0::SimdCvt             0      0.00%     49.99% # Class of committed instruction (Count)
system.cpu.committedInstType_0::SimdMisc            0      0.00%     49.99% # Class of committed instruction (Count)
system.cpu.committedInstType_0::SimdMult            0      0.00%     49.99% # Class of committed instruction (Count)
system.cpu.committedInstType_0::SimdMultAcc            0      0.00%     49.99% # Class of committed instruction (Count)
system.cpu.committedInstType_0::SimdShift            0      0.00%     49.99% # Class of committed instruction (Count)
system.cpu.committedInstType_0::SimdShiftAcc            0      0.00%     49.99% # Class of committed instruction (Count)
system.cpu.committedInstType_0::SimdDiv             0      0.00%     49.99% # Class of committed instruction (Count)
system.cpu.committedInstType_0::SimdSqrt            0      0.00%     49.99% # Class of committed instruction (Count)
system.cpu.committedInstType_0::SimdFloatAdd            0      0.00%     49.99% # Class of committed instruction (Count)
system.cpu.committedInstType_0::SimdFloatAlu            0      0.00%     49.99% # Class of committed instruction (Count)
system.cpu.committedInstType_0::SimdFloatCmp            2      0.00%     49.99% # Class of committed instruction (Count)
system.cpu.committedInstType_0::SimdFloatCvt            0      0.00%     49.99% # Class of committed instruction (Count)
system.cpu.committedInstType_0::SimdFloatDiv            0      0.00%     49.99% # Class of committed instruction (Count)
system.cpu.committedInstType_0::SimdFloatMisc            5      0.00%     49.99% # Class of committed instruction (Count)
system.cpu.committedInstType_0::SimdFloatMult            0      0.00%     49.99% # Class of committed instruction (Count)
system.cpu.committedInstType_0::SimdFloatMultAcc            0      0.00%     49.99% # Class of committed instruction (Count)
system.cpu.committedInstType_0::SimdFloatSqrt            0      0.00%     49.99% # Class of committed instruction (Count)
system.cpu.committedInstType_0::SimdReduceAdd            0      0.00%     49.99% # Class of committed instruction (Count)
system.cpu.committedInstType_0::SimdReduceAlu            0      0.00%     49.99% # Class of committed instruction (Count)
system.cpu.committedInstType_0::SimdReduceCmp            0      0.00%     49.99% # Class of committed instruction (Count)
system.cpu.committedInstType_0::SimdFloatReduceAdd            0      0.00%     49.99% # Class of committed instruction (Count)
system.cpu.committedInstType_0::SimdFloatReduceCmp            0      0.00%     49.99% # Class of committed instruction (Count)
system.cpu.committedInstType_0::SimdAes             0      0.00%     49.99% # Class of committed instruction (Count)
system.cpu.committedInstType_0::SimdAesMix            0      0.00%     49.99% # Class of committed instruction (Count)
system.cpu.committedInstType_0::SimdSha1Hash            0      0.00%     49.99% # Class of committed instruction (Count)
system.cpu.committedInstType_0::SimdSha1Hash2            0      0.00%     49.99% # Class of committed instruction (Count)
system.cpu.committedInstType_0::SimdSha256Hash            0      0.00%     49.99% # Class of committed instruction (Count)
system.cpu.committedInstType_0::SimdSha256Hash2            0      0.00%     49.99% # Class of committed instruction (Count)
system.cpu.committedInstType_0::SimdShaSigma2            0      0.00%     49.99% # Class of committed instruction (Count)
system.cpu.committedInstType_0::SimdShaSigma3            0      0.00%     49.99% # Class of committed instruction (Count)
system.cpu.committedInstType_0::SimdPredAlu            0      0.00%     49.99% # Class of committed instruction (Count)
system.cpu.committedInstType_0::MemRead      36892277     36.89%     86.88% # Class of committed instruction (Count)
system.cpu.committedInstType_0::MemWrite     13115831     13.12%    100.00% # Class of committed instruction (Count)
system.cpu.committedInstType_0::FloatMemRead            0      0.00%    100.00% # Class of committed instruction (Count)
system.cpu.committedInstType_0::FloatMemWrite            0      0.00%    100.00% # Class of committed instruction (Count)
system.cpu.committedInstType_0::IprAccess            0      0.00%    100.00% # Class of committed instruction (Count)
system.cpu.committedInstType_0::InstPrefetch            0      0.00%    100.00% # Class of committed instruction (Count)
system.cpu.committedInstType_0::total       100003447                       # Class of committed instruction (Count)
system.cpu.branchPred.lookups                  606603                       # Number of BP lookups (Count)
system.cpu.branchPred.condPredicted            604510                       # Number of conditional branches predicted (Count)
system.cpu.branchPred.condIncorrect               830                       # Number of conditional branches incorrect (Count)
system.cpu.branchPred.BTBLookups               602363                       # Number of BTB lookups (Count)
system.cpu.branchPred.BTBHits                  601185                       # Number of BTB hits (Count)
system.cpu.branchPred.BTBHitRatio            0.998044                       # BTB Hit Ratio (Ratio)
system.cpu.branchPred.RASUsed                     555                       # Number of times the RAS was used to get a target. (Count)
system.cpu.branchPred.RASIncorrect                  2                       # Number of incorrect RAS predictions. (Count)
system.cpu.branchPred.indirectLookups             379                       # Number of indirect predictor lookups. (Count)
system.cpu.branchPred.indirectHits                171                       # Number of indirect target hits. (Count)
system.cpu.branchPred.indirectMisses              208                       # Number of indirect misses. (Count)
system.cpu.branchPred.indirectMispredicted          110                       # Number of mispredicted indirect branches. (Count)
system.cpu.dcache.demandHits::cpu.data       48051273                       # number of demand (read+write) hits (Count)
system.cpu.dcache.demandHits::total          48051273                       # number of demand (read+write) hits (Count)
system.cpu.dcache.overallHits::cpu.data      48051310                       # number of overall hits (Count)
system.cpu.dcache.overallHits::total         48051310                       # number of overall hits (Count)
system.cpu.dcache.demandMisses::cpu.data       743826                       # number of demand (read+write) misses (Count)
system.cpu.dcache.demandMisses::total          743826                       # number of demand (read+write) misses (Count)
system.cpu.dcache.overallMisses::cpu.data       743841                       # number of overall misses (Count)
system.cpu.dcache.overallMisses::total         743841                       # number of overall misses (Count)
system.cpu.dcache.demandMissLatency::cpu.data  91305648000                       # number of demand (read+write) miss ticks (Tick)
system.cpu.dcache.demandMissLatency::total  91305648000                       # number of demand (read+write) miss ticks (Tick)
system.cpu.dcache.overallMissLatency::cpu.data  91305648000                       # number of overall miss ticks (Tick)
system.cpu.dcache.overallMissLatency::total  91305648000                       # number of overall miss ticks (Tick)
system.cpu.dcache.demandAccesses::cpu.data     48795099                       # number of demand (read+write) accesses (Count)
system.cpu.dcache.demandAccesses::total      48795099                       # number of demand (read+write) accesses (Count)
system.cpu.dcache.overallAccesses::cpu.data     48795151                       # number of overall (read+write) accesses (Count)
system.cpu.dcache.overallAccesses::total     48795151                       # number of overall (read+write) accesses (Count)
system.cpu.dcache.demandMissRate::cpu.data     0.015244                       # miss rate for demand accesses (Ratio)
system.cpu.dcache.demandMissRate::total      0.015244                       # miss rate for demand accesses (Ratio)
system.cpu.dcache.overallMissRate::cpu.data     0.015244                       # miss rate for overall accesses (Ratio)
system.cpu.dcache.overallMissRate::total     0.015244                       # miss rate for overall accesses (Ratio)
system.cpu.dcache.demandAvgMissLatency::cpu.data 122751.353139                       # average overall miss latency ((Cycle/Count))
system.cpu.dcache.demandAvgMissLatency::total 122751.353139                       # average overall miss latency ((Cycle/Count))
system.cpu.dcache.overallAvgMissLatency::cpu.data 122748.877784                       # average overall miss latency ((Cycle/Count))
system.cpu.dcache.overallAvgMissLatency::total 122748.877784                       # average overall miss latency ((Cycle/Count))
system.cpu.dcache.blockedCycles::no_mshrs            0                       # number of cycles access was blocked (Cycle)
system.cpu.dcache.blockedCycles::no_targets            0                       # number of cycles access was blocked (Cycle)
system.cpu.dcache.blockedCauses::no_mshrs            0                       # number of times access was blocked (Count)
system.cpu.dcache.blockedCauses::no_targets            0                       # number of times access was blocked (Count)
system.cpu.dcache.avgBlocked::no_mshrs            nan                       # average number of cycles each access was blocked ((Cycle/Count))
system.cpu.dcache.avgBlocked::no_targets          nan                       # average number of cycles each access was blocked ((Cycle/Count))
system.cpu.dcache.writebacks::writebacks       371769                       # number of writebacks (Count)
system.cpu.dcache.writebacks::total            371769                       # number of writebacks (Count)
system.cpu.dcache.demandMshrHits::cpu.data       371879                       # number of demand (read+write) MSHR hits (Count)
system.cpu.dcache.demandMshrHits::total        371879                       # number of demand (read+write) MSHR hits (Count)
system.cpu.dcache.overallMshrHits::cpu.data       371879                       # number of overall MSHR hits (Count)
system.cpu.dcache.overallMshrHits::total       371879                       # number of overall MSHR hits (Count)
system.cpu.dcache.demandMshrMisses::cpu.data       371947                       # number of demand (read+write) MSHR misses (Count)
system.cpu.dcache.demandMshrMisses::total       371947                       # number of demand (read+write) MSHR misses (Count)
system.cpu.dcache.overallMshrMisses::cpu.data       371954                       # number of overall MSHR misses (Count)
system.cpu.dcache.overallMshrMisses::total       371954                       # number of overall MSHR misses (Count)
system.cpu.dcache.demandMshrMissLatency::cpu.data  45772167000                       # number of demand (read+write) MSHR miss ticks (Tick)
system.cpu.dcache.demandMshrMissLatency::total  45772167000                       # number of demand (read+write) MSHR miss ticks (Tick)
system.cpu.dcache.overallMshrMissLatency::cpu.data  45773064000                       # number of overall MSHR miss ticks (Tick)
system.cpu.dcache.overallMshrMissLatency::total  45773064000                       # number of overall MSHR miss ticks (Tick)
system.cpu.dcache.demandMshrMissRate::cpu.data     0.007623                       # mshr miss ratio for demand accesses (Ratio)
system.cpu.dcache.demandMshrMissRate::total     0.007623                       # mshr miss ratio for demand accesses (Ratio)
system.cpu.dcache.overallMshrMissRate::cpu.data     0.007623                       # mshr miss ratio for overall accesses (Ratio)
system.cpu.dcache.overallMshrMissRate::total     0.007623                       # mshr miss ratio for overall accesses (Ratio)
system.cpu.dcache.demandAvgMshrMissLatency::cpu.data 123060.992561                       # average overall mshr miss latency ((Cycle/Count))
system.cpu.dcache.demandAvgMshrMissLatency::total 123060.992561                       # average overall mshr miss latency ((Cycle/Count))
system.cpu.dcache.overallAvgMshrMissLatency::cpu.data 123061.088199                       # average overall mshr miss latency ((Cycle/Count))
system.cpu.dcache.overallAvgMshrMissLatency::total 123061.088199                       # average overall mshr miss latency ((Cycle/Count))
system.cpu.dcache.replacements                 371827                       # number of replacements (Count)
system.cpu.dcache.LoadLockedReq.hits::cpu.data           13                       # number of LoadLockedReq hits (Count)
system.cpu.dcache.LoadLockedReq.hits::total           13                       # number of LoadLockedReq hits (Count)
system.cpu.dcache.LoadLockedReq.misses::cpu.data            1                       # number of LoadLockedReq misses (Count)
system.cpu.dcache.LoadLockedReq.misses::total            1                       # number of LoadLockedReq misses (Count)
system.cpu.dcache.LoadLockedReq.missLatency::cpu.data       363000                       # number of LoadLockedReq miss ticks (Tick)
system.cpu.dcache.LoadLockedReq.missLatency::total       363000                       # number of LoadLockedReq miss ticks (Tick)
system.cpu.dcache.LoadLockedReq.accesses::cpu.data           14                       # number of LoadLockedReq accesses(hits+misses) (Count)
system.cpu.dcache.LoadLockedReq.accesses::total           14                       # number of LoadLockedReq accesses(hits+misses) (Count)
system.cpu.dcache.LoadLockedReq.missRate::cpu.data     0.071429                       # miss rate for LoadLockedReq accesses (Ratio)
system.cpu.dcache.LoadLockedReq.missRate::total     0.071429                       # miss rate for LoadLockedReq accesses (Ratio)
system.cpu.dcache.LoadLockedReq.avgMissLatency::cpu.data       363000                       # average LoadLockedReq miss latency ((Tick/Count))
system.cpu.dcache.LoadLockedReq.avgMissLatency::total       363000                       # average LoadLockedReq miss latency ((Tick/Count))
system.cpu.dcache.LoadLockedReq.mshrMisses::cpu.data            1                       # number of LoadLockedReq MSHR misses (Count)
system.cpu.dcache.LoadLockedReq.mshrMisses::total            1                       # number of LoadLockedReq MSHR misses (Count)
system.cpu.dcache.LoadLockedReq.mshrMissLatency::cpu.data       361000                       # number of LoadLockedReq MSHR miss ticks (Tick)
system.cpu.dcache.LoadLockedReq.mshrMissLatency::total       361000                       # number of LoadLockedReq MSHR miss ticks (Tick)
system.cpu.dcache.LoadLockedReq.mshrMissRate::cpu.data     0.071429                       # mshr miss rate for LoadLockedReq accesses (Ratio)
system.cpu.dcache.LoadLockedReq.mshrMissRate::total     0.071429                       # mshr miss rate for LoadLockedReq accesses (Ratio)
system.cpu.dcache.LoadLockedReq.avgMshrMissLatency::cpu.data       361000                       # average LoadLockedReq mshr miss latency ((Tick/Count))
system.cpu.dcache.LoadLockedReq.avgMshrMissLatency::total       361000                       # average LoadLockedReq mshr miss latency ((Tick/Count))
system.cpu.dcache.ReadReq.hits::cpu.data     35702558                       # number of ReadReq hits (Count)
system.cpu.dcache.ReadReq.hits::total        35702558                       # number of ReadReq hits (Count)
system.cpu.dcache.ReadReq.misses::cpu.data           69                       # number of ReadReq misses (Count)
system.cpu.dcache.ReadReq.misses::total            69                       # number of ReadReq misses (Count)
system.cpu.dcache.ReadReq.missLatency::cpu.data      6636000                       # number of ReadReq miss ticks (Tick)
system.cpu.dcache.ReadReq.missLatency::total      6636000                       # number of ReadReq miss ticks (Tick)
system.cpu.dcache.ReadReq.accesses::cpu.data     35702627                       # number of ReadReq accesses(hits+misses) (Count)
system.cpu.dcache.ReadReq.accesses::total     35702627                       # number of ReadReq accesses(hits+misses) (Count)
system.cpu.dcache.ReadReq.missRate::cpu.data     0.000002                       # miss rate for ReadReq accesses (Ratio)
system.cpu.dcache.ReadReq.missRate::total     0.000002                       # miss rate for ReadReq accesses (Ratio)
system.cpu.dcache.ReadReq.avgMissLatency::cpu.data 96173.913043                       # average ReadReq miss latency ((Tick/Count))
system.cpu.dcache.ReadReq.avgMissLatency::total 96173.913043                       # average ReadReq miss latency ((Tick/Count))
system.cpu.dcache.ReadReq.mshrHits::cpu.data            6                       # number of ReadReq MSHR hits (Count)
system.cpu.dcache.ReadReq.mshrHits::total            6                       # number of ReadReq MSHR hits (Count)
system.cpu.dcache.ReadReq.mshrMisses::cpu.data           63                       # number of ReadReq MSHR misses (Count)
system.cpu.dcache.ReadReq.mshrMisses::total           63                       # number of ReadReq MSHR misses (Count)
system.cpu.dcache.ReadReq.mshrMissLatency::cpu.data      5856000                       # number of ReadReq MSHR miss ticks (Tick)
system.cpu.dcache.ReadReq.mshrMissLatency::total      5856000                       # number of ReadReq MSHR miss ticks (Tick)
system.cpu.dcache.ReadReq.mshrMissRate::cpu.data     0.000002                       # mshr miss rate for ReadReq accesses (Ratio)
system.cpu.dcache.ReadReq.mshrMissRate::total     0.000002                       # mshr miss rate for ReadReq accesses (Ratio)
system.cpu.dcache.ReadReq.avgMshrMissLatency::cpu.data 92952.380952                       # average ReadReq mshr miss latency ((Tick/Count))
system.cpu.dcache.ReadReq.avgMshrMissLatency::total 92952.380952                       # average ReadReq mshr miss latency ((Tick/Count))
system.cpu.dcache.SoftPFReq.hits::cpu.data           37                       # number of SoftPFReq hits (Count)
system.cpu.dcache.SoftPFReq.hits::total            37                       # number of SoftPFReq hits (Count)
system.cpu.dcache.SoftPFReq.misses::cpu.data           15                       # number of SoftPFReq misses (Count)
system.cpu.dcache.SoftPFReq.misses::total           15                       # number of SoftPFReq misses (Count)
system.cpu.dcache.SoftPFReq.accesses::cpu.data           52                       # number of SoftPFReq accesses(hits+misses) (Count)
system.cpu.dcache.SoftPFReq.accesses::total           52                       # number of SoftPFReq accesses(hits+misses) (Count)
system.cpu.dcache.SoftPFReq.missRate::cpu.data     0.288462                       # miss rate for SoftPFReq accesses (Ratio)
system.cpu.dcache.SoftPFReq.missRate::total     0.288462                       # miss rate for SoftPFReq accesses (Ratio)
system.cpu.dcache.SoftPFReq.mshrMisses::cpu.data            7                       # number of SoftPFReq MSHR misses (Count)
system.cpu.dcache.SoftPFReq.mshrMisses::total            7                       # number of SoftPFReq MSHR misses (Count)
system.cpu.dcache.SoftPFReq.mshrMissLatency::cpu.data       897000                       # number of SoftPFReq MSHR miss ticks (Tick)
system.cpu.dcache.SoftPFReq.mshrMissLatency::total       897000                       # number of SoftPFReq MSHR miss ticks (Tick)
system.cpu.dcache.SoftPFReq.mshrMissRate::cpu.data     0.134615                       # mshr miss rate for SoftPFReq accesses (Ratio)
system.cpu.dcache.SoftPFReq.mshrMissRate::total     0.134615                       # mshr miss rate for SoftPFReq accesses (Ratio)
system.cpu.dcache.SoftPFReq.avgMshrMissLatency::cpu.data 128142.857143                       # average SoftPFReq mshr miss latency ((Tick/Count))
system.cpu.dcache.SoftPFReq.avgMshrMissLatency::total 128142.857143                       # average SoftPFReq mshr miss latency ((Tick/Count))
system.cpu.dcache.StoreCondReq.hits::cpu.data           14                       # number of StoreCondReq hits (Count)
system.cpu.dcache.StoreCondReq.hits::total           14                       # number of StoreCondReq hits (Count)
system.cpu.dcache.StoreCondReq.accesses::cpu.data           14                       # number of StoreCondReq accesses(hits+misses) (Count)
system.cpu.dcache.StoreCondReq.accesses::total           14                       # number of StoreCondReq accesses(hits+misses) (Count)
system.cpu.dcache.WriteReq.hits::cpu.data     12348715                       # number of WriteReq hits (Count)
system.cpu.dcache.WriteReq.hits::total       12348715                       # number of WriteReq hits (Count)
system.cpu.dcache.WriteReq.misses::cpu.data       743757                       # number of WriteReq misses (Count)
system.cpu.dcache.WriteReq.misses::total       743757                       # number of WriteReq misses (Count)
system.cpu.dcache.WriteReq.missLatency::cpu.data  91299012000                       # number of WriteReq miss ticks (Tick)
system.cpu.dcache.WriteReq.missLatency::total  91299012000                       # number of WriteReq miss ticks (Tick)
system.cpu.dcache.WriteReq.accesses::cpu.data     13092472                       # number of WriteReq accesses(hits+misses) (Count)
system.cpu.dcache.WriteReq.accesses::total     13092472                       # number of WriteReq accesses(hits+misses) (Count)
system.cpu.dcache.WriteReq.missRate::cpu.data     0.056808                       # miss rate for WriteReq accesses (Ratio)
system.cpu.dcache.WriteReq.missRate::total     0.056808                       # miss rate for WriteReq accesses (Ratio)
system.cpu.dcache.WriteReq.avgMissLatency::cpu.data 122753.818788                       # average WriteReq miss latency ((Tick/Count))
system.cpu.dcache.WriteReq.avgMissLatency::total 122753.818788                       # average WriteReq miss latency ((Tick/Count))
system.cpu.dcache.WriteReq.mshrHits::cpu.data       371873                       # number of WriteReq MSHR hits (Count)
system.cpu.dcache.WriteReq.mshrHits::total       371873                       # number of WriteReq MSHR hits (Count)
system.cpu.dcache.WriteReq.mshrMisses::cpu.data       371884                       # number of WriteReq MSHR misses (Count)
system.cpu.dcache.WriteReq.mshrMisses::total       371884                       # number of WriteReq MSHR misses (Count)
system.cpu.dcache.WriteReq.mshrMissLatency::cpu.data  45766311000                       # number of WriteReq MSHR miss ticks (Tick)
system.cpu.dcache.WriteReq.mshrMissLatency::total  45766311000                       # number of WriteReq MSHR miss ticks (Tick)
system.cpu.dcache.WriteReq.mshrMissRate::cpu.data     0.028404                       # mshr miss rate for WriteReq accesses (Ratio)
system.cpu.dcache.WriteReq.mshrMissRate::total     0.028404                       # mshr miss rate for WriteReq accesses (Ratio)
system.cpu.dcache.WriteReq.avgMshrMissLatency::cpu.data 123066.093190                       # average WriteReq mshr miss latency ((Tick/Count))
system.cpu.dcache.WriteReq.avgMshrMissLatency::total 123066.093190                       # average WriteReq mshr miss latency ((Tick/Count))
system.cpu.dcache.power_state.pwrStateResidencyTicks::UNDEFINED 165506226000                       # Cumulative time (in ticks) in various power states (Tick)
system.cpu.dcache.tags.tagsInUse           127.964522                       # Average ticks per tags in use ((Tick/Count))
system.cpu.dcache.tags.totalRefs             48423292                       # Total number of references to valid blocks. (Count)
system.cpu.dcache.tags.sampledRefs             371955                       # Sample count of references to valid blocks. (Count)
system.cpu.dcache.tags.avgRefs             130.185888                       # Average number of references to valid blocks. ((Count/Count))
system.cpu.dcache.tags.warmupTick              285000                       # The tick when the warmup percentage was hit. (Tick)
system.cpu.dcache.tags.occupancies::cpu.data   127.964522                       # Average occupied blocks per tick, per requestor ((Count/Tick))
system.cpu.dcache.tags.avgOccs::cpu.data     0.999723                       # Average percentage of cache occupancy ((Ratio/Tick))
system.cpu.dcache.tags.avgOccs::total        0.999723                       # Average percentage of cache occupancy ((Ratio/Tick))
system.cpu.dcache.tags.occupanciesTaskId::1024          128                       # Occupied blocks per task id (Count)
system.cpu.dcache.tags.ageTaskId_1024::0           23                       # Occupied blocks per task id, per block age (Count)
system.cpu.dcache.tags.ageTaskId_1024::1          102                       # Occupied blocks per task id, per block age (Count)
system.cpu.dcache.tags.ageTaskId_1024::4            3                       # Occupied blocks per task id, per block age (Count)
system.cpu.dcache.tags.ratioOccsTaskId::1024            1                       # Ratio of occupied blocks and all blocks, per task id (Ratio)
system.cpu.dcache.tags.tagAccesses           97962313                       # Number of tag accesses (Count)
system.cpu.dcache.tags.dataAccesses          97962313                       # Number of data accesses (Count)
system.cpu.dcache.tags.power_state.pwrStateResidencyTicks::UNDEFINED 165506226000                       # Cumulative time (in ticks) in various power states (Tick)
system.cpu.fetch2.intInstructions            49670423                       # Number of integer instructions successfully decoded (Count)
system.cpu.fetch2.fpInstructions                    0                       # Number of floating point instructions successfully decoded (Count)
system.cpu.fetch2.vecInstructions                   0                       # Number of SIMD instructions successfully decoded (Count)
system.cpu.fetch2.loadInstructions           37092568                       # Number of memory load instructions successfully decoded (Count)
system.cpu.fetch2.storeInstructions          13161109                       # Number of memory store instructions successfully decoded (Count)
system.cpu.fetch2.amoInstructions                   0                       # Number of memory atomic instructions successfully decoded (Count)
system.cpu.icache.demandHits::cpu.inst        3051407                       # number of demand (read+write) hits (Count)
system.cpu.icache.demandHits::total           3051407                       # number of demand (read+write) hits (Count)
system.cpu.icache.overallHits::cpu.inst       3051407                       # number of overall hits (Count)
system.cpu.icache.overallHits::total          3051407                       # number of overall hits (Count)
system.cpu.icache.demandMisses::cpu.inst          350                       # number of demand (read+write) misses (Count)
system.cpu.icache.demandMisses::total             350                       # number of demand (read+write) misses (Count)
system.cpu.icache.overallMisses::cpu.inst          350                       # number of overall misses (Count)
system.cpu.icache.overallMisses::total            350                       # number of overall misses (Count)
system.cpu.icache.demandMissLatency::cpu.inst     30538000                       # number of demand (read+write) miss ticks (Tick)
system.cpu.icache.demandMissLatency::total     30538000                       # number of demand (read+write) miss ticks (Tick)
system.cpu.icache.overallMissLatency::cpu.inst     30538000                       # number of overall miss ticks (Tick)
system.cpu.icache.overallMissLatency::total     30538000                       # number of overall miss ticks (Tick)
system.cpu.icache.demandAccesses::cpu.inst      3051757                       # number of demand (read+write) accesses (Count)
system.cpu.icache.demandAccesses::total       3051757                       # number of demand (read+write) accesses (Count)
system.cpu.icache.overallAccesses::cpu.inst      3051757                       # number of overall (read+write) accesses (Count)
system.cpu.icache.overallAccesses::total      3051757                       # number of overall (read+write) accesses (Count)
system.cpu.icache.demandMissRate::cpu.inst     0.000115                       # miss rate for demand accesses (Ratio)
system.cpu.icache.demandMissRate::total      0.000115                       # miss rate for demand accesses (Ratio)
system.cpu.icache.overallMissRate::cpu.inst     0.000115                       # miss rate for overall accesses (Ratio)
system.cpu.icache.overallMissRate::total     0.000115                       # miss rate for overall accesses (Ratio)
system.cpu.icache.demandAvgMissLatency::cpu.inst 87251.428571                       # average overall miss latency ((Cycle/Count))
system.cpu.icache.demandAvgMissLatency::total 87251.428571                       # average overall miss latency ((Cycle/Count))
system.cpu.icache.overallAvgMissLatency::cpu.inst 87251.428571                       # average overall miss latency ((Cycle/Count))
system.cpu.icache.overallAvgMissLatency::total 87251.428571                       # average overall miss latency ((Cycle/Count))
system.cpu.icache.blockedCycles::no_mshrs            0                       # number of cycles access was blocked (Cycle)
system.cpu.icache.blockedCycles::no_targets            0                       # number of cycles access was blocked (Cycle)
system.cpu.icache.blockedCauses::no_mshrs            0                       # number of times access was blocked (Count)
system.cpu.icache.blockedCauses::no_targets            0                       # number of times access was blocked (Count)
system.cpu.icache.avgBlocked::no_mshrs            nan                       # average number of cycles each access was blocked ((Cycle/Count))
system.cpu.icache.avgBlocked::no_targets          nan                       # average number of cycles each access was blocked ((Cycle/Count))
system.cpu.icache.writebacks::writebacks          195                       # number of writebacks (Count)
system.cpu.icache.writebacks::total               195                       # number of writebacks (Count)
system.cpu.icache.demandMshrMisses::cpu.inst          350                       # number of demand (read+write) MSHR misses (Count)
system.cpu.icache.demandMshrMisses::total          350                       # number of demand (read+write) MSHR misses (Count)
system.cpu.icache.overallMshrMisses::cpu.inst          350                       # number of overall MSHR misses (Count)
system.cpu.icache.overallMshrMisses::total          350                       # number of overall MSHR misses (Count)
system.cpu.icache.demandMshrMissLatency::cpu.inst     29838000                       # number of demand (read+write) MSHR miss ticks (Tick)
system.cpu.icache.demandMshrMissLatency::total     29838000                       # number of demand (read+write) MSHR miss ticks (Tick)
system.cpu.icache.overallMshrMissLatency::cpu.inst     29838000                       # number of overall MSHR miss ticks (Tick)
system.cpu.icache.overallMshrMissLatency::total     29838000                       # number of overall MSHR miss ticks (Tick)
system.cpu.icache.demandMshrMissRate::cpu.inst     0.000115                       # mshr miss ratio for demand accesses (Ratio)
system.cpu.icache.demandMshrMissRate::total     0.000115                       # mshr miss ratio for demand accesses (Ratio)
system.cpu.icache.overallMshrMissRate::cpu.inst     0.000115                       # mshr miss ratio for overall accesses (Ratio)
system.cpu.icache.overallMshrMissRate::total     0.000115                       # mshr miss ratio for overall accesses (Ratio)
system.cpu.icache.demandAvgMshrMissLatency::cpu.inst 85251.428571                       # average overall mshr miss latency ((Cycle/Count))
system.cpu.icache.demandAvgMshrMissLatency::total 85251.428571                       # average overall mshr miss latency ((Cycle/Count))
system.cpu.icache.overallAvgMshrMissLatency::cpu.inst 85251.428571                       # average overall mshr miss latency ((Cycle/Count))
system.cpu.icache.overallAvgMshrMissLatency::total 85251.428571                       # average overall mshr miss latency ((Cycle/Count))
system.cpu.icache.replacements                    195                       # number of replacements (Count)
system.cpu.icache.ReadReq.hits::cpu.inst      3051407                       # number of ReadReq hits (Count)
system.cpu.icache.ReadReq.hits::total         3051407                       # number of ReadReq hits (Count)
system.cpu.icache.ReadReq.misses::cpu.inst          350                       # number of ReadReq misses (Count)
system.cpu.icache.ReadReq.misses::total           350                       # number of ReadReq misses (Count)
system.cpu.icache.ReadReq.missLatency::cpu.inst     30538000                       # number of ReadReq miss ticks (Tick)
system.cpu.icache.ReadReq.missLatency::total     30538000                       # number of ReadReq miss ticks (Tick)
system.cpu.icache.ReadReq.accesses::cpu.inst      3051757                       # number of ReadReq accesses(hits+misses) (Count)
system.cpu.icache.ReadReq.accesses::total      3051757                       # number of ReadReq accesses(hits+misses) (Count)
system.cpu.icache.ReadReq.missRate::cpu.inst     0.000115                       # miss rate for ReadReq accesses (Ratio)
system.cpu.icache.ReadReq.missRate::total     0.000115                       # miss rate for ReadReq accesses (Ratio)
system.cpu.icache.ReadReq.avgMissLatency::cpu.inst 87251.428571                       # average ReadReq miss latency ((Tick/Count))
system.cpu.icache.ReadReq.avgMissLatency::total 87251.428571                       # average ReadReq miss latency ((Tick/Count))
system.cpu.icache.ReadReq.mshrMisses::cpu.inst          350                       # number of ReadReq MSHR misses (Count)
system.cpu.icache.ReadReq.mshrMisses::total          350                       # number of ReadReq MSHR misses (Count)
system.cpu.icache.ReadReq.mshrMissLatency::cpu.inst     29838000                       # number of ReadReq MSHR miss ticks (Tick)
system.cpu.icache.ReadReq.mshrMissLatency::total     29838000                       # number of ReadReq MSHR miss ticks (Tick)
system.cpu.icache.ReadReq.mshrMissRate::cpu.inst     0.000115                       # mshr miss rate for ReadReq accesses (Ratio)
system.cpu.icache.ReadReq.mshrMissRate::total     0.000115                       # mshr miss rate for ReadReq accesses (Ratio)
system.cpu.icache.ReadReq.avgMshrMissLatency::cpu.inst 85251.428571                       # average ReadReq mshr miss latency ((Tick/Count))
system.cpu.icache.ReadReq.avgMshrMissLatency::total 85251.428571                       # average ReadReq mshr miss latency ((Tick/Count))
system.cpu.icache.power_state.pwrStateResidencyTicks::UNDEFINED 165506226000                       # Cumulative time (in ticks) in various power states (Tick)
system.cpu.icache.tags.tagsInUse           154.978641                       # Average ticks per tags in use ((Tick/Count))
system.cpu.icache.tags.totalRefs              3051757                       # Total number of references to valid blocks. (Count)
system.cpu.icache.tags.sampledRefs                350                       # Sample count of references to valid blocks. (Count)
system.cpu.icache.tags.avgRefs            8719.305714                       # Average number of references to valid blocks. ((Count/Count))
system.cpu.icache.tags.warmupTick              123000                       # The tick when the warmup percentage was hit. (Tick)
system.cpu.icache.tags.occupancies::cpu.inst   154.978641                       # Average occupied blocks per tick, per requestor ((Count/Tick))
system.cpu.icache.tags.avgOccs::cpu.inst     0.605385                       # Average percentage of cache occupancy ((Ratio/Tick))
system.cpu.icache.tags.avgOccs::total        0.605385                       # Average percentage of cache occupancy ((Ratio/Tick))
system.cpu.icache.tags.occupanciesTaskId::1024          155                       # Occupied blocks per task id (Count)
system.cpu.icache.tags.ageTaskId_1024::4          155                       # Occupied blocks per task id, per block age (Count)
system.cpu.icache.tags.ratioOccsTaskId::1024     0.605469                       # Ratio of occupied blocks and all blocks, per task id (Ratio)
system.cpu.icache.tags.tagAccesses            3052107                       # Number of tag accesses (Count)
system.cpu.icache.tags.dataAccesses           3052107                       # Number of data accesses (Count)
system.cpu.icache.tags.power_state.pwrStateResidencyTicks::UNDEFINED 165506226000                       # Cumulative time (in ticks) in various power states (Tick)
system.cpu.mmu.dtb.instHits                         0                       # ITB inst hits (Count)
system.cpu.mmu.dtb.instMisses                       0                       # ITB inst misses (Count)
system.cpu.mmu.dtb.readHits                         0                       # DTB read hits (Count)
system.cpu.mmu.dtb.readMisses                       0                       # DTB read misses (Count)
system.cpu.mmu.dtb.writeHits                        0                       # DTB write hits (Count)
system.cpu.mmu.dtb.writeMisses                      0                       # DTB write misses (Count)
system.cpu.mmu.dtb.inserts                          0                       # Number of times an entry is inserted into the TLB (Count)
system.cpu.mmu.dtb.flushTlb                         0                       # Number of times complete TLB was flushed (Count)
system.cpu.mmu.dtb.flushTlbMva                      0                       # Number of times TLB was flushed by MVA (Count)
system.cpu.mmu.dtb.flushTlbMvaAsid                  0                       # Number of times TLB was flushed by MVA & ASID (Count)
system.cpu.mmu.dtb.flushTlbAsid                     0                       # Number of times TLB was flushed by ASID (Count)
system.cpu.mmu.dtb.flushedEntries                   0                       # Number of entries that have been flushed from TLB (Count)
system.cpu.mmu.dtb.alignFaults                      0                       # Number of TLB faults due to alignment restrictions (Count)
system.cpu.mmu.dtb.prefetchFaults                   0                       # Number of TLB faults due to prefetch (Count)
system.cpu.mmu.dtb.domainFaults                     0                       # Number of TLB faults due to domain restrictions (Count)
system.cpu.mmu.dtb.permsFaults                      0                       # Number of TLB faults due to permissions restrictions (Count)
system.cpu.mmu.dtb.readAccesses                     0                       # DTB read accesses (Count)
system.cpu.mmu.dtb.writeAccesses                    0                       # DTB write accesses (Count)
system.cpu.mmu.dtb.instAccesses                     0                       # ITB inst accesses (Count)
system.cpu.mmu.dtb.hits                             0                       # Total TLB (inst and data) hits (Count)
system.cpu.mmu.dtb.misses                           0                       # Total TLB (inst and data) misses (Count)
system.cpu.mmu.dtb.accesses                         0                       # Total TLB (inst and data) accesses (Count)
system.cpu.mmu.dtb_walker.walks                     0                       # Table walker walks requested (Count)
system.cpu.mmu.dtb_walker.requestOrigin_Requested::Data            0                       # Table walker requests started/completed, data/inst (Count)
system.cpu.mmu.dtb_walker.requestOrigin_Requested::Inst            0                       # Table walker requests started/completed, data/inst (Count)
system.cpu.mmu.dtb_walker.requestOrigin_Requested::total            0                       # Table walker requests started/completed, data/inst (Count)
system.cpu.mmu.dtb_walker.requestOrigin_Completed::Data            0                       # Table walker requests started/completed, data/inst (Count)
system.cpu.mmu.dtb_walker.requestOrigin_Completed::Inst            0                       # Table walker requests started/completed, data/inst (Count)
system.cpu.mmu.dtb_walker.requestOrigin_Completed::total            0                       # Table walker requests started/completed, data/inst (Count)
system.cpu.mmu.dtb_walker.requestOrigin::total            0                       # Table walker requests started/completed, data/inst (Count)
system.cpu.mmu.dtb_walker.power_state.pwrStateResidencyTicks::UNDEFINED 165506226000                       # Cumulative time (in ticks) in various power states (Tick)
system.cpu.mmu.itb.instHits                         0                       # ITB inst hits (Count)
system.cpu.mmu.itb.instMisses                       0                       # ITB inst misses (Count)
system.cpu.mmu.itb.readHits                         0                       # DTB read hits (Count)
system.cpu.mmu.itb.readMisses                       0                       # DTB read misses (Count)
system.cpu.mmu.itb.writeHits                        0                       # DTB write hits (Count)
system.cpu.mmu.itb.writeMisses                      0                       # DTB write misses (Count)
system.cpu.mmu.itb.inserts                          0                       # Number of times an entry is inserted into the TLB (Count)
system.cpu.mmu.itb.flushTlb                         0                       # Number of times complete TLB was flushed (Count)
system.cpu.mmu.itb.flushTlbMva                      0                       # Number of times TLB was flushed by MVA (Count)
system.cpu.mmu.itb.flushTlbMvaAsid                  0                       # Number of times TLB was flushed by MVA & ASID (Count)
system.cpu.mmu.itb.flushTlbAsid                     0                       # Number of times TLB was flushed by ASID (Count)
system.cpu.mmu.itb.flushedEntries                   0                       # Number of entries that have been flushed from TLB (Count)
system.cpu.mmu.itb.alignFaults                      0                       # Number of TLB faults due to alignment restrictions (Count)
system.cpu.mmu.itb.prefetchFaults                   0                       # Number of TLB faults due to prefetch (Count)
system.cpu.mmu.itb.domainFaults                     0                       # Number of TLB faults due to domain restrictions (Count)
system.cpu.mmu.itb.permsFaults                      0                       # Number of TLB faults due to permissions restrictions (Count)
system.cpu.mmu.itb.readAccesses                     0                       # DTB read accesses (Count)
system.cpu.mmu.itb.writeAccesses                    0                       # DTB write accesses (Count)
system.cpu.mmu.itb.instAccesses                     0                       # ITB inst accesses (Count)
system.cpu.mmu.itb.hits                             0                       # Total TLB (inst and data) hits (Count)
system.cpu.mmu.itb.misses                           0                       # Total TLB (inst and data) misses (Count)
system.cpu.mmu.itb.accesses                         0                       # Total TLB (inst and data) accesses (Count)
system.cpu.mmu.itb_walker.walks                     0                       # Table walker walks requested (Count)
system.cpu.mmu.itb_walker.requestOrigin_Requested::Data            0                       # Table walker requests started/completed, data/inst (Count)
system.cpu.mmu.itb_walker.requestOrigin_Requested::Inst            0                       # Table walker requests started/completed, data/inst (Count)
system.cpu.mmu.itb_walker.requestOrigin_Requested::total            0                       # Table walker requests started/completed, data/inst (Count)
system.cpu.mmu.itb_walker.requestOrigin_Completed::Data            0                       # Table walker requests started/completed, data/inst (Count)
system.cpu.mmu.itb_walker.requestOrigin_Completed::Inst            0                       # Table walker requests started/completed, data/inst (Count)
system.cpu.mmu.itb_walker.requestOrigin_Completed::total            0                       # Table walker requests started/completed, data/inst (Count)
system.cpu.mmu.itb_walker.requestOrigin::total            0                       # Table walker requests started/completed, data/inst (Count)
system.cpu.mmu.itb_walker.power_state.pwrStateResidencyTicks::UNDEFINED 165506226000                       # Cumulative time (in ticks) in various power states (Tick)
system.cpu.mmu.stage2_dtb.instHits                  0                       # ITB inst hits (Count)
system.cpu.mmu.stage2_dtb.instMisses                0                       # ITB inst misses (Count)
system.cpu.mmu.stage2_dtb.readHits                  0                       # DTB read hits (Count)
system.cpu.mmu.stage2_dtb.readMisses                0                       # DTB read misses (Count)
system.cpu.mmu.stage2_dtb.writeHits                 0                       # DTB write hits (Count)
system.cpu.mmu.stage2_dtb.writeMisses               0                       # DTB write misses (Count)
system.cpu.mmu.stage2_dtb.inserts                   0                       # Number of times an entry is inserted into the TLB (Count)
system.cpu.mmu.stage2_dtb.flushTlb                  0                       # Number of times complete TLB was flushed (Count)
system.cpu.mmu.stage2_dtb.flushTlbMva               0                       # Number of times TLB was flushed by MVA (Count)
system.cpu.mmu.stage2_dtb.flushTlbMvaAsid            0                       # Number of times TLB was flushed by MVA & ASID (Count)
system.cpu.mmu.stage2_dtb.flushTlbAsid              0                       # Number of times TLB was flushed by ASID (Count)
system.cpu.mmu.stage2_dtb.flushedEntries            0                       # Number of entries that have been flushed from TLB (Count)
system.cpu.mmu.stage2_dtb.alignFaults               0                       # Number of TLB faults due to alignment restrictions (Count)
system.cpu.mmu.stage2_dtb.prefetchFaults            0                       # Number of TLB faults due to prefetch (Count)
system.cpu.mmu.stage2_dtb.domainFaults              0                       # Number of TLB faults due to domain restrictions (Count)
system.cpu.mmu.stage2_dtb.permsFaults               0                       # Number of TLB faults due to permissions restrictions (Count)
system.cpu.mmu.stage2_dtb.readAccesses              0                       # DTB read accesses (Count)
system.cpu.mmu.stage2_dtb.writeAccesses             0                       # DTB write accesses (Count)
system.cpu.mmu.stage2_dtb.instAccesses              0                       # ITB inst accesses (Count)
system.cpu.mmu.stage2_dtb.hits                      0                       # Total TLB (inst and data) hits (Count)
system.cpu.mmu.stage2_dtb.misses                    0                       # Total TLB (inst and data) misses (Count)
system.cpu.mmu.stage2_dtb.accesses                  0                       # Total TLB (inst and data) accesses (Count)
system.cpu.mmu.stage2_dtb_walker.walks              0                       # Table walker walks requested (Count)
system.cpu.mmu.stage2_dtb_walker.requestOrigin_Requested::Data            0                       # Table walker requests started/completed, data/inst (Count)
system.cpu.mmu.stage2_dtb_walker.requestOrigin_Requested::Inst            0                       # Table walker requests started/completed, data/inst (Count)
system.cpu.mmu.stage2_dtb_walker.requestOrigin_Requested::total            0                       # Table walker requests started/completed, data/inst (Count)
system.cpu.mmu.stage2_dtb_walker.requestOrigin_Completed::Data            0                       # Table walker requests started/completed, data/inst (Count)
system.cpu.mmu.stage2_dtb_walker.requestOrigin_Completed::Inst            0                       # Table walker requests started/completed, data/inst (Count)
system.cpu.mmu.stage2_dtb_walker.requestOrigin_Completed::total            0                       # Table walker requests started/completed, data/inst (Count)
system.cpu.mmu.stage2_dtb_walker.requestOrigin::total            0                       # Table walker requests started/completed, data/inst (Count)
system.cpu.mmu.stage2_dtb_walker.power_state.pwrStateResidencyTicks::UNDEFINED 165506226000                       # Cumulative time (in ticks) in various power states (Tick)
system.cpu.mmu.stage2_itb.instHits                  0                       # ITB inst hits (Count)
system.cpu.mmu.stage2_itb.instMisses                0                       # ITB inst misses (Count)
system.cpu.mmu.stage2_itb.readHits                  0                       # DTB read hits (Count)
system.cpu.mmu.stage2_itb.readMisses                0                       # DTB read misses (Count)
system.cpu.mmu.stage2_itb.writeHits                 0                       # DTB write hits (Count)
system.cpu.mmu.stage2_itb.writeMisses               0                       # DTB write misses (Count)
system.cpu.mmu.stage2_itb.inserts                   0                       # Number of times an entry is inserted into the TLB (Count)
system.cpu.mmu.stage2_itb.flushTlb                  0                       # Number of times complete TLB was flushed (Count)
system.cpu.mmu.stage2_itb.flushTlbMva               0                       # Number of times TLB was flushed by MVA (Count)
system.cpu.mmu.stage2_itb.flushTlbMvaAsid            0                       # Number of times TLB was flushed by MVA & ASID (Count)
system.cpu.mmu.stage2_itb.flushTlbAsid              0                       # Number of times TLB was flushed by ASID (Count)
system.cpu.mmu.stage2_itb.flushedEntries            0                       # Number of entries that have been flushed from TLB (Count)
system.cpu.mmu.stage2_itb.alignFaults               0                       # Number of TLB faults due to alignment restrictions (Count)
system.cpu.mmu.stage2_itb.prefetchFaults            0                       # Number of TLB faults due to prefetch (Count)
system.cpu.mmu.stage2_itb.domainFaults              0                       # Number of TLB faults due to domain restrictions (Count)
system.cpu.mmu.stage2_itb.permsFaults               0                       # Number of TLB faults due to permissions restrictions (Count)
system.cpu.mmu.stage2_itb.readAccesses              0                       # DTB read accesses (Count)
system.cpu.mmu.stage2_itb.writeAccesses             0                       # DTB write accesses (Count)
system.cpu.mmu.stage2_itb.instAccesses              0                       # ITB inst accesses (Count)
system.cpu.mmu.stage2_itb.hits                      0                       # Total TLB (inst and data) hits (Count)
system.cpu.mmu.stage2_itb.misses                    0                       # Total TLB (inst and data) misses (Count)
system.cpu.mmu.stage2_itb.accesses                  0                       # Total TLB (inst and data) accesses (Count)
system.cpu.mmu.stage2_itb_walker.walks              0                       # Table walker walks requested (Count)
system.cpu.mmu.stage2_itb_walker.requestOrigin_Requested::Data            0                       # Table walker requests started/completed, data/inst (Count)
system.cpu.mmu.stage2_itb_walker.requestOrigin_Requested::Inst            0                       # Table walker requests started/completed, data/inst (Count)
system.cpu.mmu.stage2_itb_walker.requestOrigin_Requested::total            0                       # Table walker requests started/completed, data/inst (Count)
system.cpu.mmu.stage2_itb_walker.requestOrigin_Completed::Data            0                       # Table walker requests started/completed, data/inst (Count)
system.cpu.mmu.stage2_itb_walker.requestOrigin_Completed::Inst            0                       # Table walker requests started/completed, data/inst (Count)
system.cpu.mmu.stage2_itb_walker.requestOrigin_Completed::total            0                       # Table walker requests started/completed, data/inst (Count)
system.cpu.mmu.stage2_itb_walker.requestOrigin::total            0                       # Table walker requests started/completed, data/inst (Count)
system.cpu.mmu.stage2_itb_walker.power_state.pwrStateResidencyTicks::UNDEFINED 165506226000                       # Cumulative time (in ticks) in various power states (Tick)
system.cpu.power_state.pwrStateResidencyTicks::ON 165506226000                       # Cumulative time (in ticks) in various power states (Tick)
system.cpu.thread_0.numInsts                100000001                       # Number of Instructions committed (Count)
system.cpu.thread_0.numOps                  100003447                       # Number of Ops committed (Count)
system.cpu.thread_0.numMemRefs                      0                       # Number of Memory References (Count)
system.cpu.workload.numSyscalls                    19                       # Number of system calls (Count)
system.cpu_clk_domain.clock                      1000                       # Clock period in ticks (Tick)
system.cpu_voltage_domain.voltage                   1                       # Voltage in Volts (Volt)
system.l2.demandHits::cpu.inst                    122                       # number of demand (read+write) hits (Count)
system.l2.demandHits::cpu.data                     22                       # number of demand (read+write) hits (Count)
system.l2.demandHits::total                       144                       # number of demand (read+write) hits (Count)
system.l2.overallHits::cpu.inst                   122                       # number of overall hits (Count)
system.l2.overallHits::cpu.data                    22                       # number of overall hits (Count)
system.l2.overallHits::total                      144                       # number of overall hits (Count)
system.l2.demandMisses::cpu.inst                  228                       # number of demand (read+write) misses (Count)
system.l2.demandMisses::cpu.data               371933                       # number of demand (read+write) misses (Count)
system.l2.demandMisses::total                  372161                       # number of demand (read+write) misses (Count)
system.l2.overallMisses::cpu.inst                 228                       # number of overall misses (Count)
system.l2.overallMisses::cpu.data              371933                       # number of overall misses (Count)
system.l2.overallMisses::total                 372161                       # number of overall misses (Count)
system.l2.demandMissLatency::cpu.inst        25711000                       # number of demand (read+write) miss ticks (Tick)
system.l2.demandMissLatency::cpu.data     44657048000                       # number of demand (read+write) miss ticks (Tick)
system.l2.demandMissLatency::total        44682759000                       # number of demand (read+write) miss ticks (Tick)
system.l2.overallMissLatency::cpu.inst       25711000                       # number of overall miss ticks (Tick)
system.l2.overallMissLatency::cpu.data    44657048000                       # number of overall miss ticks (Tick)
system.l2.overallMissLatency::total       44682759000                       # number of overall miss ticks (Tick)
system.l2.demandAccesses::cpu.inst                350                       # number of demand (read+write) accesses (Count)
system.l2.demandAccesses::cpu.data             371955                       # number of demand (read+write) accesses (Count)
system.l2.demandAccesses::total                372305                       # number of demand (read+write) accesses (Count)
system.l2.overallAccesses::cpu.inst               350                       # number of overall (read+write) accesses (Count)
system.l2.overallAccesses::cpu.data            371955                       # number of overall (read+write) accesses (Count)
system.l2.overallAccesses::total               372305                       # number of overall (read+write) accesses (Count)
system.l2.demandMissRate::cpu.inst           0.651429                       # miss rate for demand accesses (Ratio)
system.l2.demandMissRate::cpu.data           0.999941                       # miss rate for demand accesses (Ratio)
system.l2.demandMissRate::total              0.999613                       # miss rate for demand accesses (Ratio)
system.l2.overallMissRate::cpu.inst          0.651429                       # miss rate for overall accesses (Ratio)
system.l2.overallMissRate::cpu.data          0.999941                       # miss rate for overall accesses (Ratio)
system.l2.overallMissRate::total             0.999613                       # miss rate for overall accesses (Ratio)
system.l2.demandAvgMissLatency::cpu.inst 112767.543860                       # average overall miss latency ((Cycle/Count))
system.l2.demandAvgMissLatency::cpu.data 120067.453009                       # average overall miss latency ((Cycle/Count))
system.l2.demandAvgMissLatency::total    120062.980807                       # average overall miss latency ((Cycle/Count))
system.l2.overallAvgMissLatency::cpu.inst 112767.543860                       # average overall miss latency ((Cycle/Count))
system.l2.overallAvgMissLatency::cpu.data 120067.453009                       # average overall miss latency ((Cycle/Count))
system.l2.overallAvgMissLatency::total   120062.980807                       # average overall miss latency ((Cycle/Count))
system.l2.blockedCycles::no_mshrs                   0                       # number of cycles access was blocked (Cycle)
system.l2.blockedCycles::no_targets                 0                       # number of cycles access was blocked (Cycle)
system.l2.blockedCauses::no_mshrs                   0                       # number of times access was blocked (Count)
system.l2.blockedCauses::no_targets                 0                       # number of times access was blocked (Count)
system.l2.avgBlocked::no_mshrs                    nan                       # average number of cycles each access was blocked ((Cycle/Count))
system.l2.avgBlocked::no_targets                  nan                       # average number of cycles each access was blocked ((Cycle/Count))
system.l2.writebacks::writebacks               370868                       # number of writebacks (Count)
system.l2.writebacks::total                    370868                       # number of writebacks (Count)
system.l2.demandMshrHits::cpu.data                  3                       # number of demand (read+write) MSHR hits (Count)
system.l2.demandMshrHits::total                     3                       # number of demand (read+write) MSHR hits (Count)
system.l2.overallMshrHits::cpu.data                 3                       # number of overall MSHR hits (Count)
system.l2.overallMshrHits::total                    3                       # number of overall MSHR hits (Count)
system.l2.demandMshrMisses::cpu.inst              228                       # number of demand (read+write) MSHR misses (Count)
system.l2.demandMshrMisses::cpu.data           371930                       # number of demand (read+write) MSHR misses (Count)
system.l2.demandMshrMisses::total              372158                       # number of demand (read+write) MSHR misses (Count)
system.l2.overallMshrMisses::cpu.inst             228                       # number of overall MSHR misses (Count)
system.l2.overallMshrMisses::cpu.data          371930                       # number of overall MSHR misses (Count)
system.l2.overallMshrMisses::total             372158                       # number of overall MSHR misses (Count)
system.l2.demandMshrMissLatency::cpu.inst     21151000                       # number of demand (read+write) MSHR miss ticks (Tick)
system.l2.demandMshrMissLatency::cpu.data  37218169000                       # number of demand (read+write) MSHR miss ticks (Tick)
system.l2.demandMshrMissLatency::total    37239320000                       # number of demand (read+write) MSHR miss ticks (Tick)
system.l2.overallMshrMissLatency::cpu.inst     21151000                       # number of overall MSHR miss ticks (Tick)
system.l2.overallMshrMissLatency::cpu.data  37218169000                       # number of overall MSHR miss ticks (Tick)
system.l2.overallMshrMissLatency::total   37239320000                       # number of overall MSHR miss ticks (Tick)
system.l2.demandMshrMissRate::cpu.inst       0.651429                       # mshr miss ratio for demand accesses (Ratio)
system.l2.demandMshrMissRate::cpu.data       0.999933                       # mshr miss ratio for demand accesses (Ratio)
system.l2.demandMshrMissRate::total          0.999605                       # mshr miss ratio for demand accesses (Ratio)
system.l2.overallMshrMissRate::cpu.inst      0.651429                       # mshr miss ratio for overall accesses (Ratio)
system.l2.overallMshrMissRate::cpu.data      0.999933                       # mshr miss ratio for overall accesses (Ratio)
system.l2.overallMshrMissRate::total         0.999605                       # mshr miss ratio for overall accesses (Ratio)
system.l2.demandAvgMshrMissLatency::cpu.inst 92767.543860                       # average overall mshr miss latency ((Cycle/Count))
system.l2.demandAvgMshrMissLatency::cpu.data 100067.671336                       # average overall mshr miss latency ((Cycle/Count))
system.l2.demandAvgMshrMissLatency::total 100063.198964                       # average overall mshr miss latency ((Cycle/Count))
system.l2.overallAvgMshrMissLatency::cpu.inst 92767.543860                       # average overall mshr miss latency ((Cycle/Count))
system.l2.overallAvgMshrMissLatency::cpu.data 100067.671336                       # average overall mshr miss latency ((Cycle/Count))
system.l2.overallAvgMshrMissLatency::total 100063.198964                       # average overall mshr miss latency ((Cycle/Count))
system.l2.replacements                         371141                       # number of replacements (Count)
system.l2.CleanEvict.mshrMisses::writebacks            4                       # number of CleanEvict MSHR misses (Count)
system.l2.CleanEvict.mshrMisses::total              4                       # number of CleanEvict MSHR misses (Count)
system.l2.CleanEvict.mshrMissRate::writebacks          inf                       # mshr miss rate for CleanEvict accesses (Ratio)
system.l2.CleanEvict.mshrMissRate::total          inf                       # mshr miss rate for CleanEvict accesses (Ratio)
system.l2.ReadCleanReq.hits::cpu.inst             122                       # number of ReadCleanReq hits (Count)
system.l2.ReadCleanReq.hits::total                122                       # number of ReadCleanReq hits (Count)
system.l2.ReadCleanReq.misses::cpu.inst           228                       # number of ReadCleanReq misses (Count)
system.l2.ReadCleanReq.misses::total              228                       # number of ReadCleanReq misses (Count)
system.l2.ReadCleanReq.missLatency::cpu.inst     25711000                       # number of ReadCleanReq miss ticks (Tick)
system.l2.ReadCleanReq.missLatency::total     25711000                       # number of ReadCleanReq miss ticks (Tick)
system.l2.ReadCleanReq.accesses::cpu.inst          350                       # number of ReadCleanReq accesses(hits+misses) (Count)
system.l2.ReadCleanReq.accesses::total            350                       # number of ReadCleanReq accesses(hits+misses) (Count)
system.l2.ReadCleanReq.missRate::cpu.inst     0.651429                       # miss rate for ReadCleanReq accesses (Ratio)
system.l2.ReadCleanReq.missRate::total       0.651429                       # miss rate for ReadCleanReq accesses (Ratio)
system.l2.ReadCleanReq.avgMissLatency::cpu.inst 112767.543860                       # average ReadCleanReq miss latency ((Tick/Count))
system.l2.ReadCleanReq.avgMissLatency::total 112767.543860                       # average ReadCleanReq miss latency ((Tick/Count))
system.l2.ReadCleanReq.mshrMisses::cpu.inst          228                       # number of ReadCleanReq MSHR misses (Count)
system.l2.ReadCleanReq.mshrMisses::total          228                       # number of ReadCleanReq MSHR misses (Count)
system.l2.ReadCleanReq.mshrMissLatency::cpu.inst     21151000                       # number of ReadCleanReq MSHR miss ticks (Tick)
system.l2.ReadCleanReq.mshrMissLatency::total     21151000                       # number of ReadCleanReq MSHR miss ticks (Tick)
system.l2.ReadCleanReq.mshrMissRate::cpu.inst     0.651429                       # mshr miss rate for ReadCleanReq accesses (Ratio)
system.l2.ReadCleanReq.mshrMissRate::total     0.651429                       # mshr miss rate for ReadCleanReq accesses (Ratio)
system.l2.ReadCleanReq.avgMshrMissLatency::cpu.inst 92767.543860                       # average ReadCleanReq mshr miss latency ((Tick/Count))
system.l2.ReadCleanReq.avgMshrMissLatency::total 92767.543860                       # average ReadCleanReq mshr miss latency ((Tick/Count))
system.l2.ReadExReq.hits::cpu.data                  1                       # number of ReadExReq hits (Count)
system.l2.ReadExReq.hits::total                     1                       # number of ReadExReq hits (Count)
system.l2.ReadExReq.misses::cpu.data           371883                       # number of ReadExReq misses (Count)
system.l2.ReadExReq.misses::total              371883                       # number of ReadExReq misses (Count)
system.l2.ReadExReq.missLatency::cpu.data  44650638000                       # number of ReadExReq miss ticks (Tick)
system.l2.ReadExReq.missLatency::total    44650638000                       # number of ReadExReq miss ticks (Tick)
system.l2.ReadExReq.accesses::cpu.data         371884                       # number of ReadExReq accesses(hits+misses) (Count)
system.l2.ReadExReq.accesses::total            371884                       # number of ReadExReq accesses(hits+misses) (Count)
system.l2.ReadExReq.missRate::cpu.data       0.999997                       # miss rate for ReadExReq accesses (Ratio)
system.l2.ReadExReq.missRate::total          0.999997                       # miss rate for ReadExReq accesses (Ratio)
system.l2.ReadExReq.avgMissLatency::cpu.data 120066.359581                       # average ReadExReq miss latency ((Tick/Count))
system.l2.ReadExReq.avgMissLatency::total 120066.359581                       # average ReadExReq miss latency ((Tick/Count))
system.l2.ReadExReq.mshrMisses::cpu.data       371883                       # number of ReadExReq MSHR misses (Count)
system.l2.ReadExReq.mshrMisses::total          371883                       # number of ReadExReq MSHR misses (Count)
system.l2.ReadExReq.mshrMissLatency::cpu.data  37212978000                       # number of ReadExReq MSHR miss ticks (Tick)
system.l2.ReadExReq.mshrMissLatency::total  37212978000                       # number of ReadExReq MSHR miss ticks (Tick)
system.l2.ReadExReq.mshrMissRate::cpu.data     0.999997                       # mshr miss rate for ReadExReq accesses (Ratio)
system.l2.ReadExReq.mshrMissRate::total      0.999997                       # mshr miss rate for ReadExReq accesses (Ratio)
system.l2.ReadExReq.avgMshrMissLatency::cpu.data 100066.359581                       # average ReadExReq mshr miss latency ((Tick/Count))
system.l2.ReadExReq.avgMshrMissLatency::total 100066.359581                       # average ReadExReq mshr miss latency ((Tick/Count))
system.l2.ReadSharedReq.hits::cpu.data             21                       # number of ReadSharedReq hits (Count)
system.l2.ReadSharedReq.hits::total                21                       # number of ReadSharedReq hits (Count)
system.l2.ReadSharedReq.misses::cpu.data           50                       # number of ReadSharedReq misses (Count)
system.l2.ReadSharedReq.misses::total              50                       # number of ReadSharedReq misses (Count)
system.l2.ReadSharedReq.missLatency::cpu.data      6410000                       # number of ReadSharedReq miss ticks (Tick)
system.l2.ReadSharedReq.missLatency::total      6410000                       # number of ReadSharedReq miss ticks (Tick)
system.l2.ReadSharedReq.accesses::cpu.data           71                       # number of ReadSharedReq accesses(hits+misses) (Count)
system.l2.ReadSharedReq.accesses::total            71                       # number of ReadSharedReq accesses(hits+misses) (Count)
system.l2.ReadSharedReq.missRate::cpu.data     0.704225                       # miss rate for ReadSharedReq accesses (Ratio)
system.l2.ReadSharedReq.missRate::total      0.704225                       # miss rate for ReadSharedReq accesses (Ratio)
system.l2.ReadSharedReq.avgMissLatency::cpu.data       128200                       # average ReadSharedReq miss latency ((Tick/Count))
system.l2.ReadSharedReq.avgMissLatency::total       128200                       # average ReadSharedReq miss latency ((Tick/Count))
system.l2.ReadSharedReq.mshrHits::cpu.data            3                       # number of ReadSharedReq MSHR hits (Count)
system.l2.ReadSharedReq.mshrHits::total             3                       # number of ReadSharedReq MSHR hits (Count)
system.l2.ReadSharedReq.mshrMisses::cpu.data           47                       # number of ReadSharedReq MSHR misses (Count)
system.l2.ReadSharedReq.mshrMisses::total           47                       # number of ReadSharedReq MSHR misses (Count)
system.l2.ReadSharedReq.mshrMissLatency::cpu.data      5191000                       # number of ReadSharedReq MSHR miss ticks (Tick)
system.l2.ReadSharedReq.mshrMissLatency::total      5191000                       # number of ReadSharedReq MSHR miss ticks (Tick)
system.l2.ReadSharedReq.mshrMissRate::cpu.data     0.661972                       # mshr miss rate for ReadSharedReq accesses (Ratio)
system.l2.ReadSharedReq.mshrMissRate::total     0.661972                       # mshr miss rate for ReadSharedReq accesses (Ratio)
system.l2.ReadSharedReq.avgMshrMissLatency::cpu.data 110446.808511                       # average ReadSharedReq mshr miss latency ((Tick/Count))
system.l2.ReadSharedReq.avgMshrMissLatency::total 110446.808511                       # average ReadSharedReq mshr miss latency ((Tick/Count))
system.l2.WritebackClean.hits::writebacks          176                       # number of WritebackClean hits (Count)
system.l2.WritebackClean.hits::total              176                       # number of WritebackClean hits (Count)
system.l2.WritebackClean.accesses::writebacks          176                       # number of WritebackClean accesses(hits+misses) (Count)
system.l2.WritebackClean.accesses::total          176                       # number of WritebackClean accesses(hits+misses) (Count)
system.l2.WritebackDirty.hits::writebacks       371769                       # number of WritebackDirty hits (Count)
system.l2.WritebackDirty.hits::total           371769                       # number of WritebackDirty hits (Count)
system.l2.WritebackDirty.accesses::writebacks       371769                       # number of WritebackDirty accesses(hits+misses) (Count)
system.l2.WritebackDirty.accesses::total       371769                       # number of WritebackDirty accesses(hits+misses) (Count)
system.l2.power_state.pwrStateResidencyTicks::UNDEFINED 165506226000                       # Cumulative time (in ticks) in various power states (Tick)
system.l2.tags.tagsInUse                  1022.787595                       # Average ticks per tags in use ((Tick/Count))
system.l2.tags.totalRefs                       744280                       # Total number of references to valid blocks. (Count)
system.l2.tags.sampledRefs                     372165                       # Sample count of references to valid blocks. (Count)
system.l2.tags.avgRefs                       1.999866                       # Average number of references to valid blocks. ((Count/Count))
system.l2.tags.warmupTick                      102000                       # The tick when the warmup percentage was hit. (Tick)
system.l2.tags.occupancies::writebacks       0.008051                       # Average occupied blocks per tick, per requestor ((Count/Tick))
system.l2.tags.occupancies::cpu.inst         0.407555                       # Average occupied blocks per tick, per requestor ((Count/Tick))
system.l2.tags.occupancies::cpu.data      1022.371989                       # Average occupied blocks per tick, per requestor ((Count/Tick))
system.l2.tags.avgOccs::writebacks           0.000008                       # Average percentage of cache occupancy ((Ratio/Tick))
system.l2.tags.avgOccs::cpu.inst             0.000398                       # Average percentage of cache occupancy ((Ratio/Tick))
system.l2.tags.avgOccs::cpu.data             0.998410                       # Average percentage of cache occupancy ((Ratio/Tick))
system.l2.tags.avgOccs::total                0.998816                       # Average percentage of cache occupancy ((Ratio/Tick))
system.l2.tags.occupanciesTaskId::1024           1024                       # Occupied blocks per task id (Count)
system.l2.tags.ageTaskId_1024::0                   23                       # Occupied blocks per task id, per block age (Count)
system.l2.tags.ageTaskId_1024::1                  202                       # Occupied blocks per task id, per block age (Count)
system.l2.tags.ageTaskId_1024::2                  799                       # Occupied blocks per task id, per block age (Count)
system.l2.tags.ratioOccsTaskId::1024                1                       # Ratio of occupied blocks and all blocks, per task id (Ratio)
system.l2.tags.tagAccesses                    1116452                       # Number of tag accesses (Count)
system.l2.tags.dataAccesses                   1116452                       # Number of data accesses (Count)
system.l2.tags.power_state.pwrStateResidencyTicks::UNDEFINED 165506226000                       # Cumulative time (in ticks) in various power states (Tick)
system.mem_ctrls.avgPriority_writebacks::samples   1483472.00                       # Average QoS priority value for accepted requests (Count)
system.mem_ctrls.avgPriority_cpu.inst::samples       912.00                       # Average QoS priority value for accepted requests (Count)
system.mem_ctrls.avgPriority_cpu.data::samples   1487720.00                       # Average QoS priority value for accepted requests (Count)
system.mem_ctrls.priorityMinLatency      0.000000018750                       # per QoS priority minimum request to response latency (Second)
system.mem_ctrls.priorityMaxLatency      0.000821612750                       # per QoS priority maximum request to response latency (Second)
[...]
system.mem_ctrls.dram.perBankWrBursts::8        92800                       # Per bank write bursts (Count)
system.mem_ctrls.dram.perBankWrBursts::9        92800                       # Per bank write bursts (Count)
system.mem_ctrls.dram.perBankWrBursts::10        92773                       # Per bank write bursts (Count)
system.mem_ctrls.dram.perBankWrBursts::11        92672                       # Per bank write bursts (Count)
system.mem_ctrls.dram.perBankWrBursts::12        92672                       # Per bank write bursts (Count)
system.mem_ctrls.dram.perBankWrBursts::13        92672                       # Per bank write bursts (Count)
system.mem_ctrls.dram.perBankWrBursts::14        92672                       # Per bank write bursts (Count)
system.mem_ctrls.dram.perBankWrBursts::15        92672                       # Per bank write bursts (Count)
system.mem_ctrls.dram.totQLat             33378693000                       # Total ticks spent queuing (Tick)
system.mem_ctrls.dram.totBusLat            7443160000                       # Total ticks spent in databus transfers (Tick)
system.mem_ctrls.dram.totMemAccLat        61290543000                       # Total ticks spent from burst creation until serviced by the DRAM (Tick)
system.mem_ctrls.dram.avgQLat                22422.39                       # Average queueing delay per DRAM burst ((Tick/Count))
system.mem_ctrls.dram.avgBusLat               5000.00                       # Average bus latency per DRAM burst ((Tick/Count))
system.mem_ctrls.dram.avgMemAccLat           41172.39                       # Average memory access latency per DRAM burst ((Tick/Count))
system.mem_ctrls.dram.readRowHits             1338892                       # Number of row buffer hits during reads (Count)
system.mem_ctrls.dram.writeRowHits            1334764                       # Number of row buffer hits during writes (Count)
system.mem_ctrls.dram.readRowHitRate            89.94                       # Row buffer hit rate for reads (Ratio)
system.mem_ctrls.dram.writeRowHitRate           89.98                       # Row buffer hit rate for writes (Ratio)
system.mem_ctrls.dram.bytesPerActivate::samples       298415                       # Bytes accessed per row activation (Byte)
system.mem_ctrls.dram.bytesPerActivate::mean   637.406457                       # Bytes accessed per row activation (Byte)
system.mem_ctrls.dram.bytesPerActivate::gmean   518.167077                       # Bytes accessed per row activation (Byte)
system.mem_ctrls.dram.bytesPerActivate::stdev   361.988111                       # Bytes accessed per row activation (Byte)
system.mem_ctrls.dram.bytesPerActivate::0-127         3311      1.11%      1.11% # Bytes accessed per row activation (Byte)
system.mem_ctrls.dram.bytesPerActivate::128-255         3311      1.11%      2.22% # Bytes accessed per row activation (Byte)
system.mem_ctrls.dram.bytesPerActivate::256-383       121243     40.63%     42.85% # Bytes accessed per row activation (Byte)
system.mem_ctrls.dram.bytesPerActivate::384-511         2320      0.78%     43.63% # Bytes accessed per row activation (Byte)
system.mem_ctrls.dram.bytesPerActivate::512-639        20262      6.79%     50.42% # Bytes accessed per row activation (Byte)
system.mem_ctrls.dram.bytesPerActivate::640-767         2318      0.78%     51.19% # Bytes accessed per row activation (Byte)
system.mem_ctrls.dram.bytesPerActivate::768-895        16258      5.45%     56.64% # Bytes accessed per row activation (Byte)
system.mem_ctrls.dram.bytesPerActivate::896-1023         3642      1.22%     57.86% # Bytes accessed per row activation (Byte)
system.mem_ctrls.dram.bytesPerActivate::1024-1151       125750     42.14%    100.00% # Bytes accessed per row activation (Byte)
system.mem_ctrls.dram.bytesPerActivate::total       298415                       # Bytes accessed per row activation (Byte)
system.mem_ctrls.dram.bytesRead              95272448                       # Total number of bytes read from DRAM (Byte)
system.mem_ctrls.dram.bytesWritten           94940224                       # Total number of bytes written to DRAM (Byte)
system.mem_ctrls.dram.avgRdBW              575.642683                       # Average DRAM read bandwidth in MiBytes/s ((Byte/Second))
system.mem_ctrls.dram.avgWrBW              573.635363                       # Average DRAM write bandwidth in MiBytes/s ((Byte/Second))
system.mem_ctrls.dram.peakBW                 12800.00                       # Theoretical peak bandwidth in MiByte/s ((Byte/Second))
system.mem_ctrls.dram.busUtil                    8.98                       # Data bus utilization in percentage (Ratio)
system.mem_ctrls.dram.busUtilRead                4.50                       # Data bus utilization in percentage for reads (Ratio)
system.mem_ctrls.dram.busUtilWrite               4.48                       # Data bus utilization in percentage for writes (Ratio)
system.mem_ctrls.dram.pageHitRate               89.96                       # Row buffer hit rate, read and write combined (Ratio)
system.mem_ctrls.dram.power_state.pwrStateResidencyTicks::UNDEFINED 165506226000                       # Cumulative time (in ticks) in various power states (Tick)
system.mem_ctrls.dram.rank0.actEnergy      1065345120                       # Energy for activate commands per rank (pJ) (Joule)
system.mem_ctrls.dram.rank0.preEnergy       566244360                       # Energy for precharge commands per rank (pJ) (Joule)
system.mem_ctrls.dram.rank0.readEnergy     5314130640                       # Energy for read commands per rank (pJ) (Joule)
system.mem_ctrls.dram.rank0.writeEnergy    3871715760                       # Energy for write commands per rank (pJ) (Joule)
system.mem_ctrls.dram.rank0.refreshEnergy 13064787840.000002                       # Energy for refresh commands per rank (pJ) (Joule)
system.mem_ctrls.dram.rank0.actBackEnergy  36066494640                       # Energy for active background per rank (pJ) (Joule)
system.mem_ctrls.dram.rank0.preBackEnergy  33182605920                       # Energy for precharge background per rank (pJ) (Joule)
system.mem_ctrls.dram.rank0.actPowerDownEnergy            0                       # Energy for active power-down per rank (pJ) (Joule)
system.mem_ctrls.dram.rank0.prePowerDownEnergy            0                       # Energy for precharge power-down per rank (pJ) (Joule)
system.mem_ctrls.dram.rank0.selfRefreshEnergy            0                       # Energy for self refresh per rank (pJ) (Joule)
system.mem_ctrls.dram.rank0.totalEnergy   93131324280                       # Total energy per rank (pJ) (Joule)
system.mem_ctrls.dram.rank0.averagePower   562.705866                       # Core power per rank (mW) (Watt)
system.mem_ctrls.dram.rank0.totalIdleTime            0                       # Total Idle time Per DRAM Rank (Tick)
system.mem_ctrls.dram.rank0.pwrStateTime::IDLE  84867791750                       # Time in different power states (Tick)
system.mem_ctrls.dram.rank0.pwrStateTime::REF   5526560000                       # Time in different power states (Tick)
system.mem_ctrls.dram.rank0.pwrStateTime::SREF            0                       # Time in different power states (Tick)
system.mem_ctrls.dram.rank0.pwrStateTime::PRE_PDN            0                       # Time in different power states (Tick)
system.mem_ctrls.dram.rank0.pwrStateTime::ACT  75111874250                       # Time in different power states (Tick)
system.mem_ctrls.dram.rank0.pwrStateTime::ACT_PDN            0                       # Time in different power states (Tick)
system.mem_ctrls.dram.rank1.actEnergy      1065352260                       # Energy for activate commands per rank (pJ) (Joule)
system.mem_ctrls.dram.rank1.preEnergy       566240565                       # Energy for precharge commands per rank (pJ) (Joule)
system.mem_ctrls.dram.rank1.readEnergy     5314701840                       # Energy for read commands per rank (pJ) (Joule)
system.mem_ctrls.dram.rank1.writeEnergy    3871846260                       # Energy for write commands per rank (pJ) (Joule)
system.mem_ctrls.dram.rank1.refreshEnergy 13064787840.000002                       # Energy for refresh commands per rank (pJ) (Joule)
system.mem_ctrls.dram.rank1.actBackEnergy  36065439570                       # Energy for active background per rank (pJ) (Joule)
system.mem_ctrls.dram.rank1.preBackEnergy  33183494400                       # Energy for precharge background per rank (pJ) (Joule)
system.mem_ctrls.dram.rank1.actPowerDownEnergy            0                       # Energy for active power-down per rank (pJ) (Joule)
system.mem_ctrls.dram.rank1.prePowerDownEnergy            0                       # Energy for precharge power-down per rank (pJ) (Joule)
system.mem_ctrls.dram.rank1.selfRefreshEnergy            0                       # Energy for self refresh per rank (pJ) (Joule)
system.mem_ctrls.dram.rank1.totalEnergy   93131862735                       # Total energy per rank (pJ) (Joule)
system.mem_ctrls.dram.rank1.averagePower   562.709120                       # Core power per rank (mW) (Watt)
system.mem_ctrls.dram.rank1.totalIdleTime            0                       # Total Idle time Per DRAM Rank (Tick)
system.mem_ctrls.dram.rank1.pwrStateTime::IDLE  84869402250                       # Time in different power states (Tick)
system.mem_ctrls.dram.rank1.pwrStateTime::REF   5526560000                       # Time in different power states (Tick)
system.mem_ctrls.dram.rank1.pwrStateTime::SREF            0                       # Time in different power states (Tick)
system.mem_ctrls.dram.rank1.pwrStateTime::PRE_PDN            0                       # Time in different power states (Tick)
system.mem_ctrls.dram.rank1.pwrStateTime::ACT  75110263750                       # Time in different power states (Tick)
system.mem_ctrls.dram.rank1.pwrStateTime::ACT_PDN            0                       # Time in different power states (Tick)
system.mem_ctrls.power_state.pwrStateResidencyTicks::UNDEFINED 165506226000                       # Cumulative time (in ticks) in various power states (Tick)
system.membus.transDist::ReadResp                 275                       # Transaction distribution (Count)
system.membus.transDist::WritebackDirty        370868                       # Transaction distribution (Count)
system.membus.transDist::CleanEvict               108                       # Transaction distribution (Count)
system.membus.transDist::ReadExReq             371883                       # Transaction distribution (Count)
system.membus.transDist::ReadExResp            371883                       # Transaction distribution (Count)
system.membus.transDist::ReadSharedReq            275                       # Transaction distribution (Count)
system.membus.pktCount_system.l2.mem_side_port::system.mem_ctrls.port      1115292                       # Packet count per connected requestor and responder (Count)
system.membus.pktCount::total                 1115292                       # Packet count per connected requestor and responder (Count)
system.membus.pktSize_system.l2.mem_side_port::system.mem_ctrls.port    190214656                       # Cumulative packet size per connected requestor and responder (Byte)
system.membus.pktSize::total                190214656                       # Cumulative packet size per connected requestor and responder (Byte)
system.membus.snoops                                0                       # Total snoops (Count)
system.membus.snoopTraffic                          0                       # Total snoop traffic (Byte)
system.membus.snoopFanout::samples             372158                       # Request fanout histogram
system.membus.snoopFanout::mean                     0                       # Request fanout histogram
system.membus.snoopFanout::stdev                    0                       # Request fanout histogram
system.membus.snoopFanout::underflows               0      0.00%      0.00% # Request fanout histogram
system.membus.snoopFanout::0                   372158    100.00%    100.00% # Request fanout histogram
system.membus.snoopFanout::1                        0      0.00%    100.00% # Request fanout histogram
system.membus.snoopFanout::overflows                0      0.00%    100.00% # Request fanout histogram
system.membus.snoopFanout::min_value                0                       # Request fanout histogram
system.membus.snoopFanout::max_value                0                       # Request fanout histogram
system.membus.snoopFanout::total               372158                       # Request fanout histogram
system.membus.power_state.pwrStateResidencyTicks::UNDEFINED 165506226000                       # Cumulative time (in ticks) in various power states (Tick)
system.membus.reqLayer0.occupancy          6677022000                       # Layer occupancy (ticks) (Tick)
system.membus.reqLayer0.utilization               0.0                       # Layer utilization (Ratio)
system.membus.respLayer1.occupancy         6472125250                       # Layer occupancy (ticks) (Tick)
system.membus.respLayer1.utilization              0.0                       # Layer utilization (Ratio)
system.membus.snoop_filter.totRequests         743134                       # Total number of requests made to the snoop filter. (Count)
system.membus.snoop_filter.hitSingleRequests       370977                       # Number of requests hitting in the snoop filter with a single holder of the requested data. (Count)
system.membus.snoop_filter.hitMultiRequests            0                       # Number of requests hitting in the snoop filter with multiple (>1) holders of the requested data. (Count)
system.membus.snoop_filter.totSnoops                0                       # Total number of snoops made to the snoop filter. (Count)
system.membus.snoop_filter.hitSingleSnoops            0                       # Number of snoops hitting in the snoop filter with a single holder of the requested data. (Count)
system.membus.snoop_filter.hitMultiSnoops            0                       # Number of snoops hitting in the snoop filter with multiple (>1) holders of the requested data. (Count)
system.tol2bus.transDist::ReadResp                421                       # Transaction distribution (Count)
system.tol2bus.transDist::WritebackDirty       742637                       # Transaction distribution (Count)
system.tol2bus.transDist::WritebackClean          195                       # Transaction distribution (Count)
system.tol2bus.transDist::CleanEvict              331                       # Transaction distribution (Count)
system.tol2bus.transDist::ReadExReq            371884                       # Transaction distribution (Count)
system.tol2bus.transDist::ReadExResp           371884                       # Transaction distribution (Count)
system.tol2bus.transDist::ReadCleanReq            350                       # Transaction distribution (Count)
system.tol2bus.transDist::ReadSharedReq            71                       # Transaction distribution (Count)
system.tol2bus.pktCount_system.cpu.icache.mem_side_port::system.l2.cpu_side_port          895                       # Packet count per connected requestor and responder (Count)
system.tol2bus.pktCount_system.cpu.dcache.mem_side_port::system.l2.cpu_side_port      1115737                       # Packet count per connected requestor and responder (Count)
system.tol2bus.pktCount::total                1116632                       # Packet count per connected requestor and responder (Count)
system.tol2bus.pktSize_system.cpu.icache.mem_side_port::system.l2.cpu_side_port       139520                       # Cumulative packet size per connected requestor and responder (Byte)
system.tol2bus.pktSize_system.cpu.dcache.mem_side_port::system.l2.cpu_side_port    190393344                       # Cumulative packet size per connected requestor and responder (Byte)
system.tol2bus.pktSize::total               190532864                       # Cumulative packet size per connected requestor and responder (Byte)
system.tol2bus.snoops                          371141                       # Total snoops (Count)
system.tol2bus.snoopTraffic                  94942208                       # Total snoop traffic (Byte)
system.tol2bus.snoopFanout::samples            743446                       # Request fanout histogram
system.tol2bus.snoopFanout::mean             0.000285                       # Request fanout histogram
system.tol2bus.snoopFanout::stdev            0.017043                       # Request fanout histogram
system.tol2bus.snoopFanout::underflows              0      0.00%      0.00% # Request fanout histogram
system.tol2bus.snoopFanout::0                  743236     99.97%     99.97% # Request fanout histogram
system.tol2bus.snoopFanout::1                     208      0.03%    100.00% # Request fanout histogram
system.tol2bus.snoopFanout::2                       2      0.00%    100.00% # Request fanout histogram
system.tol2bus.snoopFanout::overflows               0      0.00%    100.00% # Request fanout histogram
system.tol2bus.snoopFanout::min_value               0                       # Request fanout histogram
system.tol2bus.snoopFanout::max_value               2                       # Request fanout histogram
system.tol2bus.snoopFanout::total              743446                       # Request fanout histogram
system.tol2bus.power_state.pwrStateResidencyTicks::UNDEFINED 165506226000                       # Cumulative time (in ticks) in various power states (Tick)
system.tol2bus.reqLayer0.occupancy         3720039000                       # Layer occupancy (ticks) (Tick)
system.tol2bus.reqLayer0.utilization              0.0                       # Layer utilization (Ratio)
system.tol2bus.respLayer0.occupancy           3150000                       # Layer occupancy (ticks) (Tick)
system.tol2bus.respLayer0.utilization             0.0                       # Layer utilization (Ratio)
system.tol2bus.respLayer1.occupancy        3347597997                       # Layer occupancy (ticks) (Tick)
system.tol2bus.respLayer1.utilization             0.0                       # Layer utilization (Ratio)
system.tol2bus.snoop_filter.totRequests        744327                       # Total number of requests made to the snoop filter. (Count)
system.tol2bus.snoop_filter.hitSingleRequests       372023                       # Number of requests hitting in the snoop filter with a single holder of the requested data. (Count)
system.tol2bus.snoop_filter.hitMultiRequests           40                       # Number of requests hitting in the snoop filter with multiple (>1) holders of the requested data. (Count)
system.tol2bus.snoop_filter.totSnoops             169                       # Total number of snoops made to the snoop filter. (Count)
system.tol2bus.snoop_filter.hitSingleSnoops          167                       # Number of snoops hitting in the snoop filter with a single holder of the requested data. (Count)
system.tol2bus.snoop_filter.hitMultiSnoops            2                       # Number of snoops hitting in the snoop filter with multiple (>1) holders of the requested data. (Count)
system.voltage_domain.voltage                       1                       # Voltage in Volts (Volt)
system.workload.inst.arm                            0                       # number of arm instructions executed (Count)
system.workload.inst.quiesce                        0                       # number of quiesce instructions executed (Count)
system.cpu.idleCycles                        51778351                       # Total number of cycles that the object has spent stopped (Unspecified)
system.cpu.tickCycles                       113727875                       # Number of cycles that the object actually ticked (Unspecified)

---------- End Simulation Statistics   ----------
